file 22329234 1652365559                                        
version 2
run OpenFlow_static_TDMA-0-20220512-16:25:23-3254
attr configname OpenFlow_static_TDMA
attr datetime 20220512-16:25:23
attr experiment OpenFlow_static_TDMA
attr inifile omnetpp.ini
attr iterationvars ""
attr iterationvarsf ""
attr measurement ""
attr network medium_network
attr processid 3254
attr repetition 0
attr replication #0
attr resultdir results
attr runnumber 0
attr seedset 0
param **.switch2.etherMAC[2].shaper.gateControlList.controlList "\"o,o,o,o,o,o,o,C:0;C,C,C,C,C,C,C,C:0.000013;C,C,C,C,C,C,C,o:0.000134;o,o,o,o,o,o,o,C:0.000401\""
param **.switch2.relayUnit.configXML "xmldoc(\"flow_table_switch2.xml\")"
param **.switch1.etherMAC[0].shaper.gateControlList.controlList "\"o,o,o,o,o,o,o,C:0;C,C,C,C,C,C,C,C:0.000013;C,C,C,C,C,C,C,o:0.000134;o,o,o,o,o,o,o,C:0.000273\""
param **.switch1.relayUnit.configXML "xmldoc(\"flow_table_switch1.xml\")"
param **.controller.controllerApps[0].staticPriorities "\"7\""
param **.scheduler.tick 80ns
param **.scheduler.numPeriods 1
param **.scheduler.period[0].cycle_ticks sec_to_tick(1ms)
param **.scheduler.oscillator.max_drift 200ppm
param **.scheduler.oscillator.drift_change uniform(-50ppm,50ppm)
param **.precission 500ns
param **.pcpSRClassA 7
param **.pcpSRClassB 6
param **.gateControlList.period "\"period[0]\""
param **.source1.phy[*].mac.address "\"0A-00-00-00-00-01\""
param **.source1.phy[*].taggedVIDs "\"0,1,2\""
param **.source1.phy[*].shaper.gateControlList.controlList "\"o,o,o,o,o,o,o,C:0;C,C,C,C,C,C,C,C:0.000010;C,C,C,C,C,C,C,o:0.000134;o,o,o,o,o,o,o,C:0.000261;\""
param **.source1.numApps 2
param **.source1.app[0].typename "\"IEEE8021QSyncTrafficSourceApp\""
param **.source1.app[0].destAddress "\"0A-00-00-00-00-04\""
param **.source1.app[0].payload 1500Byte
param **.source1.app[0].priority 7
param **.source1.app[0].vid 1
param **.source1.app[0].startTime 300ms
param **.source1.app[0].actionTime 135us
param **.source1.app[1].typename "\"IEEE8021QTrafficSourceApp\""
param **.source1.app[1].destAddress "\"0A-00-00-00-00-04\""
param **.source1.app[1].payload "intWithUnit(uniform(0Byte, 1500Byte))"
param **.source1.app[1].priority 0
param **.source1.app[1].sendInterval intWithUnit(uniform(300us,700us))
param **.source2.phy[*].mac.address "\"0A-00-00-00-00-02\""
param **.source2.phy[*].taggedVIDs "\"0,1,2\""
param **.source2.phy[*].shaper.gateControlList.controlList "\"C,C,C,C,C,C,C,C:0;C,C,C,C,C,C,C,o:0.000009;o,o,o,o,o,o,o,C:0.000136;C,C,C,C,C,C,C,C:0.000885\""
param **.source2.numApps 2
param **.source2.app[0].typename "\"IEEE8021QSyncTrafficSourceApp\""
param **.source2.app[0].destAddress "\"0A-00-00-00-00-04\""
param **.source2.app[0].payload 1500Byte
param **.source2.app[0].priority 7
param **.source2.app[0].vid 1
param **.source2.app[0].startTime 100ms
param **.source2.app[0].actionTime 10us
param **.source2.app[1].typename "\"IEEE8021QTrafficSourceApp\""
param **.source2.app[1].destAddress "\"0A-00-00-00-00-04\""
param **.source2.app[1].payload "intWithUnit(uniform(0Byte, 1500Byte))"
param **.source2.app[1].priority 0
param **.source2.app[1].sendInterval intWithUnit(uniform(300us,700us))
param **.source3.phy[*].mac.address "\"0A-00-00-00-00-03\""
param **.source3.phy[*].taggedVIDs "\"0,1,2\""
param **.source3.phy[*].shaper.gateControlList.controlList "\"C,C,C,C,C,C,C,C:0;C,C,C,C,C,C,C,o:0.000009;o,o,o,o,o,o,o,C:0.000136;C,C,C,C,C,C,C,C:0.000885\""
param **.source3.numApps 2
param **.source3.app[0].typename "\"IEEE8021QSyncTrafficSourceApp\""
param **.source3.app[0].destAddress "\"0A-00-00-00-00-04\""
param **.source3.app[0].payload 1500Byte
param **.source3.app[0].priority 7
param **.source3.app[0].vid 1
param **.source3.app[0].startTime 200ms
param **.source3.app[0].actionTime 10us
param **.source3.app[1].typename "\"IEEE8021QTrafficSourceApp\""
param **.source3.app[1].destAddress "\"0A-00-00-00-00-04\""
param **.source3.app[1].payload "intWithUnit(uniform(0Byte, 1500Byte))"
param **.source3.app[1].priority 0
param **.source3.app[1].sendInterval intWithUnit(uniform(300us,700us))
param **.sink.phy[*].mac.address "\"0A-00-00-00-00-04\""
param **.sink.phy[*].taggedVIDs "\"0,1,2\""
param **.sink.phy[*].shaper.gateControlList.controlList "\"o,o,o,o,o,o,o,o:0\""
param **.sink.numApps 3
param **.sink.app[*].typename "\"IEEE8021QTrafficSinkApp\""
param **.sink.app[0].srcAddress "\"0A-00-00-00-00-02\""
param **.sink.app[1].srcAddress "\"0A-00-00-00-00-03\""
param **.sink.app[2].srcAddress "\"0A-00-00-00-00-01\""
param **.sink.app[*].replyFirst false
param **.sink.app[*].reply false
param **.sink.bgIn.destination_gates "\"app[0].in, app[1].in, app[2].in\""
param **.switch2.eth[*].mac.address "\"0A-00-00-00-00-C2\""
param **.switch2.etherMAC[0].untaggedVID 0
param **.switch2.etherMAC[0].taggedVIDs "\"0,1,2\""
param **.switch2.etherMAC[1].untaggedVID 0
param **.switch2.etherMAC[1].taggedVIDs "\"0,1,2\""
param **.switch2.etherMAC[2].untaggedVID 0
param **.switch2.etherMAC[2].taggedVIDs "\"0,1,2\""
param **.switch2.networkLayer.ip.filters "xmldoc(\"rtIpConfig.xml\", \"/rtIpConfig/node[@id='switch2']\")"
param **.switch2.switchAgent.connectAddress "\"controller\""
param **.switch2.switchAgent.connectAt 0s
param **.switch1.nc_service_time 2ms
param **.switch2.switchAgent.bufferCapacity 3712
param **.switch2.of_service_time 100us
param **.switch2.hardware_delay 3us
param **.switch2.etherMAC[*].shaper.gateControlList.controlList "\"o,o,o,o,o,o,o,o:0\""
param **.switch1.eth[*].mac.address "\"0A-00-00-00-00-C1\""
param **.switch1.etherMAC[0].untaggedVID 0
param **.switch1.etherMAC[0].taggedVIDs "\"0,1,2\""
param **.switch1.etherMAC[1].untaggedVID 0
param **.switch1.etherMAC[1].taggedVIDs "\"0,1,2\""
param **.switch1.etherMAC[2].untaggedVID 0
param **.switch1.etherMAC[2].taggedVIDs "\"0,1,2\""
param **.switch1.networkLayer.ip.filters "xmldoc(\"rtIpConfig.xml\", \"/rtIpConfig/node[@id='switch1']\")"
param **.switch1.switchAgent.connectAddress "\"controller\""
param **.switch1.switchAgent.connectAt 0s
param **.switch1.nc_service_time 2ms
param **.switch1.switchAgent.bufferCapacity 3712
param **.switch1.of_service_time 100us
param **.switch1.hardware_delay 3us
param **.switch1.etherMAC[*].shaper.gateControlList.controlList "\"o,o,o,o,o,o,o,o:0\""
param **.controller.eth[*].mac.address "\"0A-00-00-00-00-C0\""
param **.controller.networkLayer.ip.filters "xmldoc(\"rtIpConfig.xml\", \"/rtIpConfig/node[@id='controller']\")"
param **.controller.serviceTime 500ns
param **.controller.numControllerApps 1
param **.controller.controllerApps[0].typename "\"TSNLearningControllerApp\""
param **.controller.controllerApps[0].configXML "xmldoc(\"controllerconfig.xml\")"

vector 0 medium_network.controller.ethg$o[0].channel busy:vector ETV
attr interpolationmode sample-hold
attr source channelBusy
vector 1 medium_network.ethswitch.ethg$o[0].channel busy:vector ETV
attr interpolationmode sample-hold
attr source channelBusy
vector 2 medium_network.ethswitch.ethg$o[1].channel busy:vector ETV
attr interpolationmode sample-hold
attr source channelBusy
vector 3 medium_network.ethswitch.ethg$o[2].channel busy:vector ETV
attr interpolationmode sample-hold
attr source channelBusy
vector 4 medium_network.switch1.gateControlPlane$o.channel busy:vector ETV
attr interpolationmode sample-hold
attr source channelBusy
vector 5 medium_network.switch1.gateDataPlane$o[0].channel busy:vector ETV
attr interpolationmode sample-hold
attr source channelBusy
vector 6 medium_network.switch1.gateDataPlane$o[1].channel busy:vector ETV
attr interpolationmode sample-hold
attr source channelBusy
vector 7 medium_network.switch1.gateDataPlane$o[2].channel busy:vector ETV
attr interpolationmode sample-hold
attr source channelBusy
vector 8 medium_network.switch2.gateControlPlane$o.channel busy:vector ETV
attr interpolationmode sample-hold
attr source channelBusy
vector 9 medium_network.switch2.gateDataPlane$o[0].channel busy:vector ETV
attr interpolationmode sample-hold
attr source channelBusy
vector 10 medium_network.switch2.gateDataPlane$o[1].channel busy:vector ETV
attr interpolationmode sample-hold
attr source channelBusy
vector 11 medium_network.switch2.gateDataPlane$o[2].channel busy:vector ETV
attr interpolationmode sample-hold
attr source channelBusy
vector 12 medium_network.source1.ethg$o.channel busy:vector ETV
attr interpolationmode sample-hold
attr source channelBusy
vector 13 medium_network.source2.ethg$o.channel busy:vector ETV
attr interpolationmode sample-hold
attr source channelBusy
vector 14 medium_network.source3.ethg$o.channel busy:vector ETV
attr interpolationmode sample-hold
attr source channelBusy
vector 15 medium_network.sink.ethg$o.channel busy:vector ETV
attr interpolationmode sample-hold
attr source channelBusy
vector 16 medium_network.controller.eth[0].shaper.transmissionSelection qPcp0Bytes:vector(packetBytes) ETV
attr interpolationmode none
attr title "Received Bytes, vector(packetBytes)"
attr unit B
vector 17 medium_network.controller.eth[0].shaper.transmissionSelection qPcp0Bytes:floatingIntervalSumVector(packetBytes) ETV
vector 18 medium_network.controller.eth[0].shaper.transmissionSelection qPcp0Latency:vector ETV
attr interpolationmode none
attr title "End-to-end latency, vector"
attr unit s
vector 19 medium_network.controller.eth[0].shaper.transmissionSelection qPcp1Bytes:vector(packetBytes) ETV
attr interpolationmode none
attr title "Received Bytes, vector(packetBytes)"
attr unit B
vector 20 medium_network.controller.eth[0].shaper.transmissionSelection qPcp1Bytes:floatingIntervalSumVector(packetBytes) ETV
vector 21 medium_network.controller.eth[0].shaper.transmissionSelection qPcp1Latency:vector ETV
attr interpolationmode none
attr title "End-to-end latency, vector"
attr unit s
vector 22 medium_network.controller.eth[0].shaper.transmissionSelection qPcp2Bytes:vector(packetBytes) ETV
attr interpolationmode none
attr title "Received Bytes, vector(packetBytes)"
attr unit B
vector 23 medium_network.controller.eth[0].shaper.transmissionSelection qPcp2Bytes:floatingIntervalSumVector(packetBytes) ETV
vector 24 medium_network.controller.eth[0].shaper.transmissionSelection qPcp2Latency:vector ETV
attr interpolationmode none
attr title "End-to-end latency, vector"
attr unit s
vector 25 medium_network.controller.eth[0].shaper.transmissionSelection qPcp3Bytes:vector(packetBytes) ETV
attr interpolationmode none
attr title "Received Bytes, vector(packetBytes)"
attr unit B
vector 26 medium_network.controller.eth[0].shaper.transmissionSelection qPcp3Bytes:floatingIntervalSumVector(packetBytes) ETV
vector 27 medium_network.controller.eth[0].shaper.transmissionSelection qPcp3Latency:vector ETV
attr interpolationmode none
attr title "End-to-end latency, vector"
attr unit s
vector 28 medium_network.controller.eth[0].shaper.transmissionSelection qPcp4Bytes:vector(packetBytes) ETV
attr interpolationmode none
attr title "Received Bytes, vector(packetBytes)"
attr unit B
vector 29 medium_network.controller.eth[0].shaper.transmissionSelection qPcp4Bytes:floatingIntervalSumVector(packetBytes) ETV
vector 30 medium_network.controller.eth[0].shaper.transmissionSelection qPcp4Latency:vector ETV
attr interpolationmode none
attr title "End-to-end latency, vector"
attr unit s
vector 31 medium_network.controller.eth[0].shaper.transmissionSelection qPcp5Bytes:vector(packetBytes) ETV
attr interpolationmode none
attr title "Received Bytes, vector(packetBytes)"
attr unit B
vector 32 medium_network.controller.eth[0].shaper.transmissionSelection qPcp5Bytes:floatingIntervalSumVector(packetBytes) ETV
vector 33 medium_network.controller.eth[0].shaper.transmissionSelection qPcp5Latency:vector ETV
attr interpolationmode none
attr title "End-to-end latency, vector"
attr unit s
vector 34 medium_network.controller.eth[0].shaper.transmissionSelection qPcp6Bytes:vector(packetBytes) ETV
attr interpolationmode none
attr title "Received Bytes, vector(packetBytes)"
attr unit B
vector 35 medium_network.controller.eth[0].shaper.transmissionSelection qPcp6Bytes:floatingIntervalSumVector(packetBytes) ETV
vector 36 medium_network.controller.eth[0].shaper.transmissionSelection qPcp6Latency:vector ETV
attr interpolationmode none
attr title "End-to-end latency, vector"
attr unit s
vector 37 medium_network.controller.eth[0].shaper.transmissionSelection qPcp7Bytes:vector(packetBytes) ETV
attr interpolationmode none
attr title "Received Bytes, vector(packetBytes)"
attr unit B
vector 38 medium_network.controller.eth[0].shaper.transmissionSelection qPcp7Bytes:floatingIntervalSumVector(packetBytes) ETV
vector 39 medium_network.controller.eth[0].shaper.transmissionSelection qPcp7Latency:vector ETV
attr interpolationmode none
attr title "End-to-end latency, vector"
attr unit s
vector 40 medium_network.ethswitch.phy[0].shaper q0QueueLength:vector ETV
attr interpolationmode sample-hold
attr title "Q-Queue Length (q0QueueLength)"
attr unit packets
vector 41 medium_network.ethswitch.phy[0].shaper q0QueueSize:vector ETV
attr interpolationmode sample-hold
attr title "Q-Queue Size (q0QueueSize)"
attr unit B
vector 42 medium_network.ethswitch.phy[0].shaper q1QueueLength:vector ETV
attr interpolationmode sample-hold
attr title "Q-Queue Length (q1QueueLength)"
attr unit packets
vector 43 medium_network.ethswitch.phy[0].shaper q1QueueSize:vector ETV
attr interpolationmode sample-hold
attr title "Q-Queue Size (q1QueueSize)"
attr unit B
vector 44 medium_network.ethswitch.phy[0].shaper q2QueueLength:vector ETV
attr interpolationmode sample-hold
attr title "Q-Queue Length (q2QueueLength)"
attr unit packets
vector 45 medium_network.ethswitch.phy[0].shaper q2QueueSize:vector ETV
attr interpolationmode sample-hold
attr title "Q-Queue Size (q2QueueSize)"
attr unit B
vector 46 medium_network.ethswitch.phy[0].shaper q3QueueLength:vector ETV
attr interpolationmode sample-hold
attr title "Q-Queue Length (q3QueueLength)"
attr unit packets
vector 47 medium_network.ethswitch.phy[0].shaper q3QueueSize:vector ETV
attr interpolationmode sample-hold
attr title "Q-Queue Size (q3QueueSize)"
attr unit B
vector 48 medium_network.ethswitch.phy[0].shaper q4QueueLength:vector ETV
attr interpolationmode sample-hold
attr title "Q-Queue Length (q4QueueLength)"
attr unit packets
vector 49 medium_network.ethswitch.phy[0].shaper q4QueueSize:vector ETV
attr interpolationmode sample-hold
attr title "Q-Queue Size (q4QueueSize)"
attr unit B
vector 50 medium_network.ethswitch.phy[0].shaper q5QueueLength:vector ETV
attr interpolationmode sample-hold
attr title "Q-Queue Length (q5QueueLength)"
attr unit packets
vector 51 medium_network.ethswitch.phy[0].shaper q5QueueSize:vector ETV
attr interpolationmode sample-hold
attr title "Q-Queue Size (q5QueueSize)"
attr unit B
vector 52 medium_network.ethswitch.phy[0].shaper q6QueueLength:vector ETV
attr interpolationmode sample-hold
attr title "Q-Queue Length (q6QueueLength)"
attr unit packets
vector 53 medium_network.ethswitch.phy[0].shaper q6QueueSize:vector ETV
attr interpolationmode sample-hold
attr title "Q-Queue Size (q6QueueSize)"
attr unit B
vector 54 medium_network.ethswitch.phy[0].shaper q7QueueLength:vector ETV
attr interpolationmode sample-hold
attr title "Q-Queue Length (q7QueueLength)"
attr unit packets
vector 55 medium_network.ethswitch.phy[0].shaper q7QueueSize:vector ETV
attr interpolationmode sample-hold
attr title "Q-Queue Size (q7QueueSize)"
attr unit B
vector 56 medium_network.ethswitch.phy[1].shaper q0QueueLength:vector ETV
attr interpolationmode sample-hold
attr title "Q-Queue Length (q0QueueLength)"
attr unit packets
vector 57 medium_network.ethswitch.phy[1].shaper q0QueueSize:vector ETV
attr interpolationmode sample-hold
attr title "Q-Queue Size (q0QueueSize)"
attr unit B
vector 58 medium_network.ethswitch.phy[1].shaper q1QueueLength:vector ETV
attr interpolationmode sample-hold
attr title "Q-Queue Length (q1QueueLength)"
attr unit packets
vector 59 medium_network.ethswitch.phy[1].shaper q1QueueSize:vector ETV
attr interpolationmode sample-hold
attr title "Q-Queue Size (q1QueueSize)"
attr unit B
vector 60 medium_network.ethswitch.phy[1].shaper q2QueueLength:vector ETV
attr interpolationmode sample-hold
attr title "Q-Queue Length (q2QueueLength)"
attr unit packets
vector 61 medium_network.ethswitch.phy[1].shaper q2QueueSize:vector ETV
attr interpolationmode sample-hold
attr title "Q-Queue Size (q2QueueSize)"
attr unit B
vector 62 medium_network.ethswitch.phy[1].shaper q3QueueLength:vector ETV
attr interpolationmode sample-hold
attr title "Q-Queue Length (q3QueueLength)"
attr unit packets
vector 63 medium_network.ethswitch.phy[1].shaper q3QueueSize:vector ETV
attr interpolationmode sample-hold
attr title "Q-Queue Size (q3QueueSize)"
attr unit B
vector 64 medium_network.ethswitch.phy[1].shaper q4QueueLength:vector ETV
attr interpolationmode sample-hold
attr title "Q-Queue Length (q4QueueLength)"
attr unit packets
vector 65 medium_network.ethswitch.phy[1].shaper q4QueueSize:vector ETV
attr interpolationmode sample-hold
attr title "Q-Queue Size (q4QueueSize)"
attr unit B
vector 66 medium_network.ethswitch.phy[1].shaper q5QueueLength:vector ETV
attr interpolationmode sample-hold
attr title "Q-Queue Length (q5QueueLength)"
attr unit packets
vector 67 medium_network.ethswitch.phy[1].shaper q5QueueSize:vector ETV
attr interpolationmode sample-hold
attr title "Q-Queue Size (q5QueueSize)"
attr unit B
vector 68 medium_network.ethswitch.phy[1].shaper q6QueueLength:vector ETV
attr interpolationmode sample-hold
attr title "Q-Queue Length (q6QueueLength)"
attr unit packets
vector 69 medium_network.ethswitch.phy[1].shaper q6QueueSize:vector ETV
attr interpolationmode sample-hold
attr title "Q-Queue Size (q6QueueSize)"
attr unit B
vector 70 medium_network.ethswitch.phy[1].shaper q7QueueLength:vector ETV
attr interpolationmode sample-hold
attr title "Q-Queue Length (q7QueueLength)"
attr unit packets
vector 71 medium_network.ethswitch.phy[1].shaper q7QueueSize:vector ETV
attr interpolationmode sample-hold
attr title "Q-Queue Size (q7QueueSize)"
attr unit B
vector 72 medium_network.ethswitch.phy[2].shaper q0QueueLength:vector ETV
attr interpolationmode sample-hold
attr title "Q-Queue Length (q0QueueLength)"
attr unit packets
vector 73 medium_network.ethswitch.phy[2].shaper q0QueueSize:vector ETV
attr interpolationmode sample-hold
attr title "Q-Queue Size (q0QueueSize)"
attr unit B
vector 74 medium_network.ethswitch.phy[2].shaper q1QueueLength:vector ETV
attr interpolationmode sample-hold
attr title "Q-Queue Length (q1QueueLength)"
attr unit packets
vector 75 medium_network.ethswitch.phy[2].shaper q1QueueSize:vector ETV
attr interpolationmode sample-hold
attr title "Q-Queue Size (q1QueueSize)"
attr unit B
vector 76 medium_network.ethswitch.phy[2].shaper q2QueueLength:vector ETV
attr interpolationmode sample-hold
attr title "Q-Queue Length (q2QueueLength)"
attr unit packets
vector 77 medium_network.ethswitch.phy[2].shaper q2QueueSize:vector ETV
attr interpolationmode sample-hold
attr title "Q-Queue Size (q2QueueSize)"
attr unit B
vector 78 medium_network.ethswitch.phy[2].shaper q3QueueLength:vector ETV
attr interpolationmode sample-hold
attr title "Q-Queue Length (q3QueueLength)"
attr unit packets
vector 79 medium_network.ethswitch.phy[2].shaper q3QueueSize:vector ETV
attr interpolationmode sample-hold
attr title "Q-Queue Size (q3QueueSize)"
attr unit B
vector 80 medium_network.ethswitch.phy[2].shaper q4QueueLength:vector ETV
attr interpolationmode sample-hold
attr title "Q-Queue Length (q4QueueLength)"
attr unit packets
vector 81 medium_network.ethswitch.phy[2].shaper q4QueueSize:vector ETV
attr interpolationmode sample-hold
attr title "Q-Queue Size (q4QueueSize)"
attr unit B
vector 82 medium_network.ethswitch.phy[2].shaper q5QueueLength:vector ETV
attr interpolationmode sample-hold
attr title "Q-Queue Length (q5QueueLength)"
attr unit packets
vector 83 medium_network.ethswitch.phy[2].shaper q5QueueSize:vector ETV
attr interpolationmode sample-hold
attr title "Q-Queue Size (q5QueueSize)"
attr unit B
vector 84 medium_network.ethswitch.phy[2].shaper q6QueueLength:vector ETV
attr interpolationmode sample-hold
attr title "Q-Queue Length (q6QueueLength)"
attr unit packets
vector 85 medium_network.ethswitch.phy[2].shaper q6QueueSize:vector ETV
attr interpolationmode sample-hold
attr title "Q-Queue Size (q6QueueSize)"
attr unit B
vector 86 medium_network.ethswitch.phy[2].shaper q7QueueLength:vector ETV
attr interpolationmode sample-hold
attr title "Q-Queue Length (q7QueueLength)"
attr unit packets
vector 87 medium_network.ethswitch.phy[2].shaper q7QueueSize:vector ETV
attr interpolationmode sample-hold
attr title "Q-Queue Size (q7QueueSize)"
attr unit B
vector 88 medium_network.switch1.eth[0].shaper.transmissionSelection qPcp0Bytes:vector(packetBytes) ETV
attr interpolationmode none
attr title "Received Bytes, vector(packetBytes)"
attr unit B
vector 89 medium_network.switch1.eth[0].shaper.transmissionSelection qPcp0Bytes:floatingIntervalSumVector(packetBytes) ETV
vector 90 medium_network.switch1.eth[0].shaper.transmissionSelection qPcp0Latency:vector ETV
attr interpolationmode none
attr title "End-to-end latency, vector"
attr unit s
vector 91 medium_network.switch1.eth[0].shaper.transmissionSelection qPcp1Bytes:vector(packetBytes) ETV
attr interpolationmode none
attr title "Received Bytes, vector(packetBytes)"
attr unit B
vector 92 medium_network.switch1.eth[0].shaper.transmissionSelection qPcp1Bytes:floatingIntervalSumVector(packetBytes) ETV
vector 93 medium_network.switch1.eth[0].shaper.transmissionSelection qPcp1Latency:vector ETV
attr interpolationmode none
attr title "End-to-end latency, vector"
attr unit s
vector 94 medium_network.switch1.eth[0].shaper.transmissionSelection qPcp2Bytes:vector(packetBytes) ETV
attr interpolationmode none
attr title "Received Bytes, vector(packetBytes)"
attr unit B
vector 95 medium_network.switch1.eth[0].shaper.transmissionSelection qPcp2Bytes:floatingIntervalSumVector(packetBytes) ETV
vector 96 medium_network.switch1.eth[0].shaper.transmissionSelection qPcp2Latency:vector ETV
attr interpolationmode none
attr title "End-to-end latency, vector"
attr unit s
vector 97 medium_network.switch1.eth[0].shaper.transmissionSelection qPcp3Bytes:vector(packetBytes) ETV
attr interpolationmode none
attr title "Received Bytes, vector(packetBytes)"
attr unit B
vector 98 medium_network.switch1.eth[0].shaper.transmissionSelection qPcp3Bytes:floatingIntervalSumVector(packetBytes) ETV
vector 99 medium_network.switch1.eth[0].shaper.transmissionSelection qPcp3Latency:vector ETV
attr interpolationmode none
attr title "End-to-end latency, vector"
attr unit s
vector 100 medium_network.switch1.eth[0].shaper.transmissionSelection qPcp4Bytes:vector(packetBytes) ETV
attr interpolationmode none
attr title "Received Bytes, vector(packetBytes)"
attr unit B
vector 101 medium_network.switch1.eth[0].shaper.transmissionSelection qPcp4Bytes:floatingIntervalSumVector(packetBytes) ETV
vector 102 medium_network.switch1.eth[0].shaper.transmissionSelection qPcp4Latency:vector ETV
attr interpolationmode none
attr title "End-to-end latency, vector"
attr unit s
vector 103 medium_network.switch1.eth[0].shaper.transmissionSelection qPcp5Bytes:vector(packetBytes) ETV
attr interpolationmode none
attr title "Received Bytes, vector(packetBytes)"
attr unit B
vector 104 medium_network.switch1.eth[0].shaper.transmissionSelection qPcp5Bytes:floatingIntervalSumVector(packetBytes) ETV
vector 105 medium_network.switch1.eth[0].shaper.transmissionSelection qPcp5Latency:vector ETV
attr interpolationmode none
attr title "End-to-end latency, vector"
attr unit s
vector 106 medium_network.switch1.eth[0].shaper.transmissionSelection qPcp6Bytes:vector(packetBytes) ETV
attr interpolationmode none
attr title "Received Bytes, vector(packetBytes)"
attr unit B
vector 107 medium_network.switch1.eth[0].shaper.transmissionSelection qPcp6Bytes:floatingIntervalSumVector(packetBytes) ETV
vector 108 medium_network.switch1.eth[0].shaper.transmissionSelection qPcp6Latency:vector ETV
attr interpolationmode none
attr title "End-to-end latency, vector"
attr unit s
vector 109 medium_network.switch1.eth[0].shaper.transmissionSelection qPcp7Bytes:vector(packetBytes) ETV
attr interpolationmode none
attr title "Received Bytes, vector(packetBytes)"
attr unit B
vector 110 medium_network.switch1.eth[0].shaper.transmissionSelection qPcp7Bytes:floatingIntervalSumVector(packetBytes) ETV
vector 111 medium_network.switch1.eth[0].shaper.transmissionSelection qPcp7Latency:vector ETV
attr interpolationmode none
attr title "End-to-end latency, vector"
attr unit s
vector 112 medium_network.switch1.etherMAC[0].shaper.transmissionSelection qPcp0Bytes:vector(packetBytes) ETV
attr interpolationmode none
attr title "Received Bytes, vector(packetBytes)"
attr unit B
vector 113 medium_network.switch1.etherMAC[0].shaper.transmissionSelection qPcp0Bytes:floatingIntervalSumVector(packetBytes) ETV
vector 114 medium_network.switch1.etherMAC[0].shaper.transmissionSelection qPcp0Latency:vector ETV
attr interpolationmode none
attr title "End-to-end latency, vector"
attr unit s
vector 115 medium_network.switch1.etherMAC[0].shaper.transmissionSelection qPcp1Bytes:vector(packetBytes) ETV
attr interpolationmode none
attr title "Received Bytes, vector(packetBytes)"
attr unit B
vector 116 medium_network.switch1.etherMAC[0].shaper.transmissionSelection qPcp1Bytes:floatingIntervalSumVector(packetBytes) ETV
vector 117 medium_network.switch1.etherMAC[0].shaper.transmissionSelection qPcp1Latency:vector ETV
attr interpolationmode none
attr title "End-to-end latency, vector"
attr unit s
vector 118 medium_network.switch1.etherMAC[0].shaper.transmissionSelection qPcp2Bytes:vector(packetBytes) ETV
attr interpolationmode none
attr title "Received Bytes, vector(packetBytes)"
attr unit B
vector 119 medium_network.switch1.etherMAC[0].shaper.transmissionSelection qPcp2Bytes:floatingIntervalSumVector(packetBytes) ETV
vector 120 medium_network.switch1.etherMAC[0].shaper.transmissionSelection qPcp2Latency:vector ETV
attr interpolationmode none
attr title "End-to-end latency, vector"
attr unit s
vector 121 medium_network.switch1.etherMAC[0].shaper.transmissionSelection qPcp3Bytes:vector(packetBytes) ETV
attr interpolationmode none
attr title "Received Bytes, vector(packetBytes)"
attr unit B
vector 122 medium_network.switch1.etherMAC[0].shaper.transmissionSelection qPcp3Bytes:floatingIntervalSumVector(packetBytes) ETV
vector 123 medium_network.switch1.etherMAC[0].shaper.transmissionSelection qPcp3Latency:vector ETV
attr interpolationmode none
attr title "End-to-end latency, vector"
attr unit s
vector 124 medium_network.switch1.etherMAC[0].shaper.transmissionSelection qPcp4Bytes:vector(packetBytes) ETV
attr interpolationmode none
attr title "Received Bytes, vector(packetBytes)"
attr unit B
vector 125 medium_network.switch1.etherMAC[0].shaper.transmissionSelection qPcp4Bytes:floatingIntervalSumVector(packetBytes) ETV
vector 126 medium_network.switch1.etherMAC[0].shaper.transmissionSelection qPcp4Latency:vector ETV
attr interpolationmode none
attr title "End-to-end latency, vector"
attr unit s
vector 127 medium_network.switch1.etherMAC[0].shaper.transmissionSelection qPcp5Bytes:vector(packetBytes) ETV
attr interpolationmode none
attr title "Received Bytes, vector(packetBytes)"
attr unit B
vector 128 medium_network.switch1.etherMAC[0].shaper.transmissionSelection qPcp5Bytes:floatingIntervalSumVector(packetBytes) ETV
vector 129 medium_network.switch1.etherMAC[0].shaper.transmissionSelection qPcp5Latency:vector ETV
attr interpolationmode none
attr title "End-to-end latency, vector"
attr unit s
vector 130 medium_network.switch1.etherMAC[0].shaper.transmissionSelection qPcp6Bytes:vector(packetBytes) ETV
attr interpolationmode none
attr title "Received Bytes, vector(packetBytes)"
attr unit B
vector 131 medium_network.switch1.etherMAC[0].shaper.transmissionSelection qPcp6Bytes:floatingIntervalSumVector(packetBytes) ETV
vector 132 medium_network.switch1.etherMAC[0].shaper.transmissionSelection qPcp6Latency:vector ETV
attr interpolationmode none
attr title "End-to-end latency, vector"
attr unit s
vector 133 medium_network.switch1.etherMAC[0].shaper.transmissionSelection qPcp7Bytes:vector(packetBytes) ETV
attr interpolationmode none
attr title "Received Bytes, vector(packetBytes)"
attr unit B
vector 134 medium_network.switch1.etherMAC[0].shaper.transmissionSelection qPcp7Bytes:floatingIntervalSumVector(packetBytes) ETV
vector 135 medium_network.switch1.etherMAC[0].shaper.transmissionSelection qPcp7Latency:vector ETV
attr interpolationmode none
attr title "End-to-end latency, vector"
attr unit s
vector 136 medium_network.switch1.etherMAC[1].shaper.transmissionSelection qPcp0Bytes:vector(packetBytes) ETV
attr interpolationmode none
attr title "Received Bytes, vector(packetBytes)"
attr unit B
vector 137 medium_network.switch1.etherMAC[1].shaper.transmissionSelection qPcp0Bytes:floatingIntervalSumVector(packetBytes) ETV
vector 138 medium_network.switch1.etherMAC[1].shaper.transmissionSelection qPcp0Latency:vector ETV
attr interpolationmode none
attr title "End-to-end latency, vector"
attr unit s
vector 139 medium_network.switch1.etherMAC[1].shaper.transmissionSelection qPcp1Bytes:vector(packetBytes) ETV
attr interpolationmode none
attr title "Received Bytes, vector(packetBytes)"
attr unit B
vector 140 medium_network.switch1.etherMAC[1].shaper.transmissionSelection qPcp1Bytes:floatingIntervalSumVector(packetBytes) ETV
vector 141 medium_network.switch1.etherMAC[1].shaper.transmissionSelection qPcp1Latency:vector ETV
attr interpolationmode none
attr title "End-to-end latency, vector"
attr unit s
vector 142 medium_network.switch1.etherMAC[1].shaper.transmissionSelection qPcp2Bytes:vector(packetBytes) ETV
attr interpolationmode none
attr title "Received Bytes, vector(packetBytes)"
attr unit B
vector 143 medium_network.switch1.etherMAC[1].shaper.transmissionSelection qPcp2Bytes:floatingIntervalSumVector(packetBytes) ETV
vector 144 medium_network.switch1.etherMAC[1].shaper.transmissionSelection qPcp2Latency:vector ETV
attr interpolationmode none
attr title "End-to-end latency, vector"
attr unit s
vector 145 medium_network.switch1.etherMAC[1].shaper.transmissionSelection qPcp3Bytes:vector(packetBytes) ETV
attr interpolationmode none
attr title "Received Bytes, vector(packetBytes)"
attr unit B
vector 146 medium_network.switch1.etherMAC[1].shaper.transmissionSelection qPcp3Bytes:floatingIntervalSumVector(packetBytes) ETV
vector 147 medium_network.switch1.etherMAC[1].shaper.transmissionSelection qPcp3Latency:vector ETV
attr interpolationmode none
attr title "End-to-end latency, vector"
attr unit s
vector 148 medium_network.switch1.etherMAC[1].shaper.transmissionSelection qPcp4Bytes:vector(packetBytes) ETV
attr interpolationmode none
attr title "Received Bytes, vector(packetBytes)"
attr unit B
vector 149 medium_network.switch1.etherMAC[1].shaper.transmissionSelection qPcp4Bytes:floatingIntervalSumVector(packetBytes) ETV
vector 150 medium_network.switch1.etherMAC[1].shaper.transmissionSelection qPcp4Latency:vector ETV
attr interpolationmode none
attr title "End-to-end latency, vector"
attr unit s
vector 151 medium_network.switch1.etherMAC[1].shaper.transmissionSelection qPcp5Bytes:vector(packetBytes) ETV
attr interpolationmode none
attr title "Received Bytes, vector(packetBytes)"
attr unit B
vector 152 medium_network.switch1.etherMAC[1].shaper.transmissionSelection qPcp5Bytes:floatingIntervalSumVector(packetBytes) ETV
vector 153 medium_network.switch1.etherMAC[1].shaper.transmissionSelection qPcp5Latency:vector ETV
attr interpolationmode none
attr title "End-to-end latency, vector"
attr unit s
vector 154 medium_network.switch1.etherMAC[1].shaper.transmissionSelection qPcp6Bytes:vector(packetBytes) ETV
attr interpolationmode none
attr title "Received Bytes, vector(packetBytes)"
attr unit B
vector 155 medium_network.switch1.etherMAC[1].shaper.transmissionSelection qPcp6Bytes:floatingIntervalSumVector(packetBytes) ETV
vector 156 medium_network.switch1.etherMAC[1].shaper.transmissionSelection qPcp6Latency:vector ETV
attr interpolationmode none
attr title "End-to-end latency, vector"
attr unit s
vector 157 medium_network.switch1.etherMAC[1].shaper.transmissionSelection qPcp7Bytes:vector(packetBytes) ETV
attr interpolationmode none
attr title "Received Bytes, vector(packetBytes)"
attr unit B
vector 158 medium_network.switch1.etherMAC[1].shaper.transmissionSelection qPcp7Bytes:floatingIntervalSumVector(packetBytes) ETV
vector 159 medium_network.switch1.etherMAC[1].shaper.transmissionSelection qPcp7Latency:vector ETV
attr interpolationmode none
attr title "End-to-end latency, vector"
attr unit s
vector 160 medium_network.switch1.etherMAC[2].shaper.transmissionSelection qPcp0Bytes:vector(packetBytes) ETV
attr interpolationmode none
attr title "Received Bytes, vector(packetBytes)"
attr unit B
vector 161 medium_network.switch1.etherMAC[2].shaper.transmissionSelection qPcp0Bytes:floatingIntervalSumVector(packetBytes) ETV
vector 162 medium_network.switch1.etherMAC[2].shaper.transmissionSelection qPcp0Latency:vector ETV
attr interpolationmode none
attr title "End-to-end latency, vector"
attr unit s
vector 163 medium_network.switch1.etherMAC[2].shaper.transmissionSelection qPcp1Bytes:vector(packetBytes) ETV
attr interpolationmode none
attr title "Received Bytes, vector(packetBytes)"
attr unit B
vector 164 medium_network.switch1.etherMAC[2].shaper.transmissionSelection qPcp1Bytes:floatingIntervalSumVector(packetBytes) ETV
vector 165 medium_network.switch1.etherMAC[2].shaper.transmissionSelection qPcp1Latency:vector ETV
attr interpolationmode none
attr title "End-to-end latency, vector"
attr unit s
vector 166 medium_network.switch1.etherMAC[2].shaper.transmissionSelection qPcp2Bytes:vector(packetBytes) ETV
attr interpolationmode none
attr title "Received Bytes, vector(packetBytes)"
attr unit B
vector 167 medium_network.switch1.etherMAC[2].shaper.transmissionSelection qPcp2Bytes:floatingIntervalSumVector(packetBytes) ETV
vector 168 medium_network.switch1.etherMAC[2].shaper.transmissionSelection qPcp2Latency:vector ETV
attr interpolationmode none
attr title "End-to-end latency, vector"
attr unit s
vector 169 medium_network.switch1.etherMAC[2].shaper.transmissionSelection qPcp3Bytes:vector(packetBytes) ETV
attr interpolationmode none
attr title "Received Bytes, vector(packetBytes)"
attr unit B
vector 170 medium_network.switch1.etherMAC[2].shaper.transmissionSelection qPcp3Bytes:floatingIntervalSumVector(packetBytes) ETV
vector 171 medium_network.switch1.etherMAC[2].shaper.transmissionSelection qPcp3Latency:vector ETV
attr interpolationmode none
attr title "End-to-end latency, vector"
attr unit s
vector 172 medium_network.switch1.etherMAC[2].shaper.transmissionSelection qPcp4Bytes:vector(packetBytes) ETV
attr interpolationmode none
attr title "Received Bytes, vector(packetBytes)"
attr unit B
vector 173 medium_network.switch1.etherMAC[2].shaper.transmissionSelection qPcp4Bytes:floatingIntervalSumVector(packetBytes) ETV
vector 174 medium_network.switch1.etherMAC[2].shaper.transmissionSelection qPcp4Latency:vector ETV
attr interpolationmode none
attr title "End-to-end latency, vector"
attr unit s
vector 175 medium_network.switch1.etherMAC[2].shaper.transmissionSelection qPcp5Bytes:vector(packetBytes) ETV
attr interpolationmode none
attr title "Received Bytes, vector(packetBytes)"
attr unit B
vector 176 medium_network.switch1.etherMAC[2].shaper.transmissionSelection qPcp5Bytes:floatingIntervalSumVector(packetBytes) ETV
vector 177 medium_network.switch1.etherMAC[2].shaper.transmissionSelection qPcp5Latency:vector ETV
attr interpolationmode none
attr title "End-to-end latency, vector"
attr unit s
vector 178 medium_network.switch1.etherMAC[2].shaper.transmissionSelection qPcp6Bytes:vector(packetBytes) ETV
attr interpolationmode none
attr title "Received Bytes, vector(packetBytes)"
attr unit B
vector 179 medium_network.switch1.etherMAC[2].shaper.transmissionSelection qPcp6Bytes:floatingIntervalSumVector(packetBytes) ETV
vector 180 medium_network.switch1.etherMAC[2].shaper.transmissionSelection qPcp6Latency:vector ETV
attr interpolationmode none
attr title "End-to-end latency, vector"
attr unit s
vector 181 medium_network.switch1.etherMAC[2].shaper.transmissionSelection qPcp7Bytes:vector(packetBytes) ETV
attr interpolationmode none
attr title "Received Bytes, vector(packetBytes)"
attr unit B
vector 182 medium_network.switch1.etherMAC[2].shaper.transmissionSelection qPcp7Bytes:floatingIntervalSumVector(packetBytes) ETV
vector 183 medium_network.switch1.etherMAC[2].shaper.transmissionSelection qPcp7Latency:vector ETV
attr interpolationmode none
attr title "End-to-end latency, vector"
attr unit s
vector 184 medium_network.switch2.eth[0].shaper.transmissionSelection qPcp0Bytes:vector(packetBytes) ETV
attr interpolationmode none
attr title "Received Bytes, vector(packetBytes)"
attr unit B
vector 185 medium_network.switch2.eth[0].shaper.transmissionSelection qPcp0Bytes:floatingIntervalSumVector(packetBytes) ETV
vector 186 medium_network.switch2.eth[0].shaper.transmissionSelection qPcp0Latency:vector ETV
attr interpolationmode none
attr title "End-to-end latency, vector"
attr unit s
vector 187 medium_network.switch2.eth[0].shaper.transmissionSelection qPcp1Bytes:vector(packetBytes) ETV
attr interpolationmode none
attr title "Received Bytes, vector(packetBytes)"
attr unit B
vector 188 medium_network.switch2.eth[0].shaper.transmissionSelection qPcp1Bytes:floatingIntervalSumVector(packetBytes) ETV
vector 189 medium_network.switch2.eth[0].shaper.transmissionSelection qPcp1Latency:vector ETV
attr interpolationmode none
attr title "End-to-end latency, vector"
attr unit s
vector 190 medium_network.switch2.eth[0].shaper.transmissionSelection qPcp2Bytes:vector(packetBytes) ETV
attr interpolationmode none
attr title "Received Bytes, vector(packetBytes)"
attr unit B
vector 191 medium_network.switch2.eth[0].shaper.transmissionSelection qPcp2Bytes:floatingIntervalSumVector(packetBytes) ETV
vector 192 medium_network.switch2.eth[0].shaper.transmissionSelection qPcp2Latency:vector ETV
attr interpolationmode none
attr title "End-to-end latency, vector"
attr unit s
vector 193 medium_network.switch2.eth[0].shaper.transmissionSelection qPcp3Bytes:vector(packetBytes) ETV
attr interpolationmode none
attr title "Received Bytes, vector(packetBytes)"
attr unit B
vector 194 medium_network.switch2.eth[0].shaper.transmissionSelection qPcp3Bytes:floatingIntervalSumVector(packetBytes) ETV
vector 195 medium_network.switch2.eth[0].shaper.transmissionSelection qPcp3Latency:vector ETV
attr interpolationmode none
attr title "End-to-end latency, vector"
attr unit s
vector 196 medium_network.switch2.eth[0].shaper.transmissionSelection qPcp4Bytes:vector(packetBytes) ETV
attr interpolationmode none
attr title "Received Bytes, vector(packetBytes)"
attr unit B
vector 197 medium_network.switch2.eth[0].shaper.transmissionSelection qPcp4Bytes:floatingIntervalSumVector(packetBytes) ETV
vector 198 medium_network.switch2.eth[0].shaper.transmissionSelection qPcp4Latency:vector ETV
attr interpolationmode none
attr title "End-to-end latency, vector"
attr unit s
vector 199 medium_network.switch2.eth[0].shaper.transmissionSelection qPcp5Bytes:vector(packetBytes) ETV
attr interpolationmode none
attr title "Received Bytes, vector(packetBytes)"
attr unit B
vector 200 medium_network.switch2.eth[0].shaper.transmissionSelection qPcp5Bytes:floatingIntervalSumVector(packetBytes) ETV
vector 201 medium_network.switch2.eth[0].shaper.transmissionSelection qPcp5Latency:vector ETV
attr interpolationmode none
attr title "End-to-end latency, vector"
attr unit s
vector 202 medium_network.switch2.eth[0].shaper.transmissionSelection qPcp6Bytes:vector(packetBytes) ETV
attr interpolationmode none
attr title "Received Bytes, vector(packetBytes)"
attr unit B
vector 203 medium_network.switch2.eth[0].shaper.transmissionSelection qPcp6Bytes:floatingIntervalSumVector(packetBytes) ETV
vector 204 medium_network.switch2.eth[0].shaper.transmissionSelection qPcp6Latency:vector ETV
attr interpolationmode none
attr title "End-to-end latency, vector"
attr unit s
vector 205 medium_network.switch2.eth[0].shaper.transmissionSelection qPcp7Bytes:vector(packetBytes) ETV
attr interpolationmode none
attr title "Received Bytes, vector(packetBytes)"
attr unit B
vector 206 medium_network.switch2.eth[0].shaper.transmissionSelection qPcp7Bytes:floatingIntervalSumVector(packetBytes) ETV
vector 207 medium_network.switch2.eth[0].shaper.transmissionSelection qPcp7Latency:vector ETV
attr interpolationmode none
attr title "End-to-end latency, vector"
attr unit s
vector 208 medium_network.switch2.etherMAC[0].shaper.transmissionSelection qPcp0Bytes:vector(packetBytes) ETV
attr interpolationmode none
attr title "Received Bytes, vector(packetBytes)"
attr unit B
vector 209 medium_network.switch2.etherMAC[0].shaper.transmissionSelection qPcp0Bytes:floatingIntervalSumVector(packetBytes) ETV
vector 210 medium_network.switch2.etherMAC[0].shaper.transmissionSelection qPcp0Latency:vector ETV
attr interpolationmode none
attr title "End-to-end latency, vector"
attr unit s
vector 211 medium_network.switch2.etherMAC[0].shaper.transmissionSelection qPcp1Bytes:vector(packetBytes) ETV
attr interpolationmode none
attr title "Received Bytes, vector(packetBytes)"
attr unit B
vector 212 medium_network.switch2.etherMAC[0].shaper.transmissionSelection qPcp1Bytes:floatingIntervalSumVector(packetBytes) ETV
vector 213 medium_network.switch2.etherMAC[0].shaper.transmissionSelection qPcp1Latency:vector ETV
attr interpolationmode none
attr title "End-to-end latency, vector"
attr unit s
vector 214 medium_network.switch2.etherMAC[0].shaper.transmissionSelection qPcp2Bytes:vector(packetBytes) ETV
attr interpolationmode none
attr title "Received Bytes, vector(packetBytes)"
attr unit B
vector 215 medium_network.switch2.etherMAC[0].shaper.transmissionSelection qPcp2Bytes:floatingIntervalSumVector(packetBytes) ETV
vector 216 medium_network.switch2.etherMAC[0].shaper.transmissionSelection qPcp2Latency:vector ETV
attr interpolationmode none
attr title "End-to-end latency, vector"
attr unit s
vector 217 medium_network.switch2.etherMAC[0].shaper.transmissionSelection qPcp3Bytes:vector(packetBytes) ETV
attr interpolationmode none
attr title "Received Bytes, vector(packetBytes)"
attr unit B
vector 218 medium_network.switch2.etherMAC[0].shaper.transmissionSelection qPcp3Bytes:floatingIntervalSumVector(packetBytes) ETV
vector 219 medium_network.switch2.etherMAC[0].shaper.transmissionSelection qPcp3Latency:vector ETV
attr interpolationmode none
attr title "End-to-end latency, vector"
attr unit s
vector 220 medium_network.switch2.etherMAC[0].shaper.transmissionSelection qPcp4Bytes:vector(packetBytes) ETV
attr interpolationmode none
attr title "Received Bytes, vector(packetBytes)"
attr unit B
vector 221 medium_network.switch2.etherMAC[0].shaper.transmissionSelection qPcp4Bytes:floatingIntervalSumVector(packetBytes) ETV
vector 222 medium_network.switch2.etherMAC[0].shaper.transmissionSelection qPcp4Latency:vector ETV
attr interpolationmode none
attr title "End-to-end latency, vector"
attr unit s
vector 223 medium_network.switch2.etherMAC[0].shaper.transmissionSelection qPcp5Bytes:vector(packetBytes) ETV
attr interpolationmode none
attr title "Received Bytes, vector(packetBytes)"
attr unit B
vector 224 medium_network.switch2.etherMAC[0].shaper.transmissionSelection qPcp5Bytes:floatingIntervalSumVector(packetBytes) ETV
vector 225 medium_network.switch2.etherMAC[0].shaper.transmissionSelection qPcp5Latency:vector ETV
attr interpolationmode none
attr title "End-to-end latency, vector"
attr unit s
vector 226 medium_network.switch2.etherMAC[0].shaper.transmissionSelection qPcp6Bytes:vector(packetBytes) ETV
attr interpolationmode none
attr title "Received Bytes, vector(packetBytes)"
attr unit B
vector 227 medium_network.switch2.etherMAC[0].shaper.transmissionSelection qPcp6Bytes:floatingIntervalSumVector(packetBytes) ETV
vector 228 medium_network.switch2.etherMAC[0].shaper.transmissionSelection qPcp6Latency:vector ETV
attr interpolationmode none
attr title "End-to-end latency, vector"
attr unit s
vector 229 medium_network.switch2.etherMAC[0].shaper.transmissionSelection qPcp7Bytes:vector(packetBytes) ETV
attr interpolationmode none
attr title "Received Bytes, vector(packetBytes)"
attr unit B
vector 230 medium_network.switch2.etherMAC[0].shaper.transmissionSelection qPcp7Bytes:floatingIntervalSumVector(packetBytes) ETV
vector 231 medium_network.switch2.etherMAC[0].shaper.transmissionSelection qPcp7Latency:vector ETV
attr interpolationmode none
attr title "End-to-end latency, vector"
attr unit s
vector 232 medium_network.switch2.etherMAC[1].shaper.transmissionSelection qPcp0Bytes:vector(packetBytes) ETV
attr interpolationmode none
attr title "Received Bytes, vector(packetBytes)"
attr unit B
vector 233 medium_network.switch2.etherMAC[1].shaper.transmissionSelection qPcp0Bytes:floatingIntervalSumVector(packetBytes) ETV
vector 234 medium_network.switch2.etherMAC[1].shaper.transmissionSelection qPcp0Latency:vector ETV
attr interpolationmode none
attr title "End-to-end latency, vector"
attr unit s
vector 235 medium_network.switch2.etherMAC[1].shaper.transmissionSelection qPcp1Bytes:vector(packetBytes) ETV
attr interpolationmode none
attr title "Received Bytes, vector(packetBytes)"
attr unit B
vector 236 medium_network.switch2.etherMAC[1].shaper.transmissionSelection qPcp1Bytes:floatingIntervalSumVector(packetBytes) ETV
vector 237 medium_network.switch2.etherMAC[1].shaper.transmissionSelection qPcp1Latency:vector ETV
attr interpolationmode none
attr title "End-to-end latency, vector"
attr unit s
vector 238 medium_network.switch2.etherMAC[1].shaper.transmissionSelection qPcp2Bytes:vector(packetBytes) ETV
attr interpolationmode none
attr title "Received Bytes, vector(packetBytes)"
attr unit B
vector 239 medium_network.switch2.etherMAC[1].shaper.transmissionSelection qPcp2Bytes:floatingIntervalSumVector(packetBytes) ETV
vector 240 medium_network.switch2.etherMAC[1].shaper.transmissionSelection qPcp2Latency:vector ETV
attr interpolationmode none
attr title "End-to-end latency, vector"
attr unit s
vector 241 medium_network.switch2.etherMAC[1].shaper.transmissionSelection qPcp3Bytes:vector(packetBytes) ETV
attr interpolationmode none
attr title "Received Bytes, vector(packetBytes)"
attr unit B
vector 242 medium_network.switch2.etherMAC[1].shaper.transmissionSelection qPcp3Bytes:floatingIntervalSumVector(packetBytes) ETV
vector 243 medium_network.switch2.etherMAC[1].shaper.transmissionSelection qPcp3Latency:vector ETV
attr interpolationmode none
attr title "End-to-end latency, vector"
attr unit s
vector 244 medium_network.switch2.etherMAC[1].shaper.transmissionSelection qPcp4Bytes:vector(packetBytes) ETV
attr interpolationmode none
attr title "Received Bytes, vector(packetBytes)"
attr unit B
vector 245 medium_network.switch2.etherMAC[1].shaper.transmissionSelection qPcp4Bytes:floatingIntervalSumVector(packetBytes) ETV
vector 246 medium_network.switch2.etherMAC[1].shaper.transmissionSelection qPcp4Latency:vector ETV
attr interpolationmode none
attr title "End-to-end latency, vector"
attr unit s
vector 247 medium_network.switch2.etherMAC[1].shaper.transmissionSelection qPcp5Bytes:vector(packetBytes) ETV
attr interpolationmode none
attr title "Received Bytes, vector(packetBytes)"
attr unit B
vector 248 medium_network.switch2.etherMAC[1].shaper.transmissionSelection qPcp5Bytes:floatingIntervalSumVector(packetBytes) ETV
vector 249 medium_network.switch2.etherMAC[1].shaper.transmissionSelection qPcp5Latency:vector ETV
attr interpolationmode none
attr title "End-to-end latency, vector"
attr unit s
vector 250 medium_network.switch2.etherMAC[1].shaper.transmissionSelection qPcp6Bytes:vector(packetBytes) ETV
attr interpolationmode none
attr title "Received Bytes, vector(packetBytes)"
attr unit B
vector 251 medium_network.switch2.etherMAC[1].shaper.transmissionSelection qPcp6Bytes:floatingIntervalSumVector(packetBytes) ETV
vector 252 medium_network.switch2.etherMAC[1].shaper.transmissionSelection qPcp6Latency:vector ETV
attr interpolationmode none
attr title "End-to-end latency, vector"
attr unit s
vector 253 medium_network.switch2.etherMAC[1].shaper.transmissionSelection qPcp7Bytes:vector(packetBytes) ETV
attr interpolationmode none
attr title "Received Bytes, vector(packetBytes)"
attr unit B
vector 254 medium_network.switch2.etherMAC[1].shaper.transmissionSelection qPcp7Bytes:floatingIntervalSumVector(packetBytes) ETV
vector 255 medium_network.switch2.etherMAC[1].shaper.transmissionSelection qPcp7Latency:vector ETV
attr interpolationmode none
attr title "End-to-end latency, vector"
attr unit s
vector 256 medium_network.switch2.etherMAC[2].shaper.transmissionSelection qPcp0Bytes:vector(packetBytes) ETV
attr interpolationmode none
attr title "Received Bytes, vector(packetBytes)"
attr unit B
vector 257 medium_network.switch2.etherMAC[2].shaper.transmissionSelection qPcp0Bytes:floatingIntervalSumVector(packetBytes) ETV
vector 258 medium_network.switch2.etherMAC[2].shaper.transmissionSelection qPcp0Latency:vector ETV
attr interpolationmode none
attr title "End-to-end latency, vector"
attr unit s
vector 259 medium_network.switch2.etherMAC[2].shaper.transmissionSelection qPcp1Bytes:vector(packetBytes) ETV
attr interpolationmode none
attr title "Received Bytes, vector(packetBytes)"
attr unit B
vector 260 medium_network.switch2.etherMAC[2].shaper.transmissionSelection qPcp1Bytes:floatingIntervalSumVector(packetBytes) ETV
vector 261 medium_network.switch2.etherMAC[2].shaper.transmissionSelection qPcp1Latency:vector ETV
attr interpolationmode none
attr title "End-to-end latency, vector"
attr unit s
vector 262 medium_network.switch2.etherMAC[2].shaper.transmissionSelection qPcp2Bytes:vector(packetBytes) ETV
attr interpolationmode none
attr title "Received Bytes, vector(packetBytes)"
attr unit B
vector 263 medium_network.switch2.etherMAC[2].shaper.transmissionSelection qPcp2Bytes:floatingIntervalSumVector(packetBytes) ETV
vector 264 medium_network.switch2.etherMAC[2].shaper.transmissionSelection qPcp2Latency:vector ETV
attr interpolationmode none
attr title "End-to-end latency, vector"
attr unit s
vector 265 medium_network.switch2.etherMAC[2].shaper.transmissionSelection qPcp3Bytes:vector(packetBytes) ETV
attr interpolationmode none
attr title "Received Bytes, vector(packetBytes)"
attr unit B
vector 266 medium_network.switch2.etherMAC[2].shaper.transmissionSelection qPcp3Bytes:floatingIntervalSumVector(packetBytes) ETV
vector 267 medium_network.switch2.etherMAC[2].shaper.transmissionSelection qPcp3Latency:vector ETV
attr interpolationmode none
attr title "End-to-end latency, vector"
attr unit s
vector 268 medium_network.switch2.etherMAC[2].shaper.transmissionSelection qPcp4Bytes:vector(packetBytes) ETV
attr interpolationmode none
attr title "Received Bytes, vector(packetBytes)"
attr unit B
vector 269 medium_network.switch2.etherMAC[2].shaper.transmissionSelection qPcp4Bytes:floatingIntervalSumVector(packetBytes) ETV
vector 270 medium_network.switch2.etherMAC[2].shaper.transmissionSelection qPcp4Latency:vector ETV
attr interpolationmode none
attr title "End-to-end latency, vector"
attr unit s
vector 271 medium_network.switch2.etherMAC[2].shaper.transmissionSelection qPcp5Bytes:vector(packetBytes) ETV
attr interpolationmode none
attr title "Received Bytes, vector(packetBytes)"
attr unit B
vector 272 medium_network.switch2.etherMAC[2].shaper.transmissionSelection qPcp5Bytes:floatingIntervalSumVector(packetBytes) ETV
vector 273 medium_network.switch2.etherMAC[2].shaper.transmissionSelection qPcp5Latency:vector ETV
attr interpolationmode none
attr title "End-to-end latency, vector"
attr unit s
vector 274 medium_network.switch2.etherMAC[2].shaper.transmissionSelection qPcp6Bytes:vector(packetBytes) ETV
attr interpolationmode none
attr title "Received Bytes, vector(packetBytes)"
attr unit B
vector 275 medium_network.switch2.etherMAC[2].shaper.transmissionSelection qPcp6Bytes:floatingIntervalSumVector(packetBytes) ETV
vector 276 medium_network.switch2.etherMAC[2].shaper.transmissionSelection qPcp6Latency:vector ETV
attr interpolationmode none
attr title "End-to-end latency, vector"
attr unit s
vector 277 medium_network.switch2.etherMAC[2].shaper.transmissionSelection qPcp7Bytes:vector(packetBytes) ETV
attr interpolationmode none
attr title "Received Bytes, vector(packetBytes)"
attr unit B
vector 278 medium_network.switch2.etherMAC[2].shaper.transmissionSelection qPcp7Bytes:floatingIntervalSumVector(packetBytes) ETV
vector 279 medium_network.switch2.etherMAC[2].shaper.transmissionSelection qPcp7Latency:vector ETV
attr interpolationmode none
attr title "End-to-end latency, vector"
attr unit s
vector 280 medium_network.source1.phy[0].shaper.transmissionSelection qPcp0Bytes:vector(packetBytes) ETV
attr interpolationmode none
attr title "Received Bytes, vector(packetBytes)"
attr unit B
vector 281 medium_network.source1.phy[0].shaper.transmissionSelection qPcp0Bytes:floatingIntervalSumVector(packetBytes) ETV
vector 282 medium_network.source1.phy[0].shaper.transmissionSelection qPcp0Latency:vector ETV
attr interpolationmode none
attr title "End-to-end latency, vector"
attr unit s
vector 283 medium_network.source1.phy[0].shaper.transmissionSelection qPcp1Bytes:vector(packetBytes) ETV
attr interpolationmode none
attr title "Received Bytes, vector(packetBytes)"
attr unit B
vector 284 medium_network.source1.phy[0].shaper.transmissionSelection qPcp1Bytes:floatingIntervalSumVector(packetBytes) ETV
vector 285 medium_network.source1.phy[0].shaper.transmissionSelection qPcp1Latency:vector ETV
attr interpolationmode none
attr title "End-to-end latency, vector"
attr unit s
vector 286 medium_network.source1.phy[0].shaper.transmissionSelection qPcp2Bytes:vector(packetBytes) ETV
attr interpolationmode none
attr title "Received Bytes, vector(packetBytes)"
attr unit B
vector 287 medium_network.source1.phy[0].shaper.transmissionSelection qPcp2Bytes:floatingIntervalSumVector(packetBytes) ETV
vector 288 medium_network.source1.phy[0].shaper.transmissionSelection qPcp2Latency:vector ETV
attr interpolationmode none
attr title "End-to-end latency, vector"
attr unit s
vector 289 medium_network.source1.phy[0].shaper.transmissionSelection qPcp3Bytes:vector(packetBytes) ETV
attr interpolationmode none
attr title "Received Bytes, vector(packetBytes)"
attr unit B
vector 290 medium_network.source1.phy[0].shaper.transmissionSelection qPcp3Bytes:floatingIntervalSumVector(packetBytes) ETV
vector 291 medium_network.source1.phy[0].shaper.transmissionSelection qPcp3Latency:vector ETV
attr interpolationmode none
attr title "End-to-end latency, vector"
attr unit s
vector 292 medium_network.source1.phy[0].shaper.transmissionSelection qPcp4Bytes:vector(packetBytes) ETV
attr interpolationmode none
attr title "Received Bytes, vector(packetBytes)"
attr unit B
vector 293 medium_network.source1.phy[0].shaper.transmissionSelection qPcp4Bytes:floatingIntervalSumVector(packetBytes) ETV
vector 294 medium_network.source1.phy[0].shaper.transmissionSelection qPcp4Latency:vector ETV
attr interpolationmode none
attr title "End-to-end latency, vector"
attr unit s
vector 295 medium_network.source1.phy[0].shaper.transmissionSelection qPcp5Bytes:vector(packetBytes) ETV
attr interpolationmode none
attr title "Received Bytes, vector(packetBytes)"
attr unit B
vector 296 medium_network.source1.phy[0].shaper.transmissionSelection qPcp5Bytes:floatingIntervalSumVector(packetBytes) ETV
vector 297 medium_network.source1.phy[0].shaper.transmissionSelection qPcp5Latency:vector ETV
attr interpolationmode none
attr title "End-to-end latency, vector"
attr unit s
vector 298 medium_network.source1.phy[0].shaper.transmissionSelection qPcp6Bytes:vector(packetBytes) ETV
attr interpolationmode none
attr title "Received Bytes, vector(packetBytes)"
attr unit B
vector 299 medium_network.source1.phy[0].shaper.transmissionSelection qPcp6Bytes:floatingIntervalSumVector(packetBytes) ETV
vector 300 medium_network.source1.phy[0].shaper.transmissionSelection qPcp6Latency:vector ETV
attr interpolationmode none
attr title "End-to-end latency, vector"
attr unit s
vector 301 medium_network.source1.phy[0].shaper.transmissionSelection qPcp7Bytes:vector(packetBytes) ETV
attr interpolationmode none
attr title "Received Bytes, vector(packetBytes)"
attr unit B
vector 302 medium_network.source1.phy[0].shaper.transmissionSelection qPcp7Bytes:floatingIntervalSumVector(packetBytes) ETV
vector 303 medium_network.source1.phy[0].shaper.transmissionSelection qPcp7Latency:vector ETV
attr interpolationmode none
attr title "End-to-end latency, vector"
attr unit s
vector 304 medium_network.source2.phy[0].shaper.transmissionSelection qPcp0Bytes:vector(packetBytes) ETV
attr interpolationmode none
attr title "Received Bytes, vector(packetBytes)"
attr unit B
vector 305 medium_network.source2.phy[0].shaper.transmissionSelection qPcp0Bytes:floatingIntervalSumVector(packetBytes) ETV
vector 306 medium_network.source2.phy[0].shaper.transmissionSelection qPcp0Latency:vector ETV
attr interpolationmode none
attr title "End-to-end latency, vector"
attr unit s
vector 307 medium_network.source2.phy[0].shaper.transmissionSelection qPcp1Bytes:vector(packetBytes) ETV
attr interpolationmode none
attr title "Received Bytes, vector(packetBytes)"
attr unit B
vector 308 medium_network.source2.phy[0].shaper.transmissionSelection qPcp1Bytes:floatingIntervalSumVector(packetBytes) ETV
vector 309 medium_network.source2.phy[0].shaper.transmissionSelection qPcp1Latency:vector ETV
attr interpolationmode none
attr title "End-to-end latency, vector"
attr unit s
vector 310 medium_network.source2.phy[0].shaper.transmissionSelection qPcp2Bytes:vector(packetBytes) ETV
attr interpolationmode none
attr title "Received Bytes, vector(packetBytes)"
attr unit B
vector 311 medium_network.source2.phy[0].shaper.transmissionSelection qPcp2Bytes:floatingIntervalSumVector(packetBytes) ETV
vector 312 medium_network.source2.phy[0].shaper.transmissionSelection qPcp2Latency:vector ETV
attr interpolationmode none
attr title "End-to-end latency, vector"
attr unit s
vector 313 medium_network.source2.phy[0].shaper.transmissionSelection qPcp3Bytes:vector(packetBytes) ETV
attr interpolationmode none
attr title "Received Bytes, vector(packetBytes)"
attr unit B
vector 314 medium_network.source2.phy[0].shaper.transmissionSelection qPcp3Bytes:floatingIntervalSumVector(packetBytes) ETV
vector 315 medium_network.source2.phy[0].shaper.transmissionSelection qPcp3Latency:vector ETV
attr interpolationmode none
attr title "End-to-end latency, vector"
attr unit s
vector 316 medium_network.source2.phy[0].shaper.transmissionSelection qPcp4Bytes:vector(packetBytes) ETV
attr interpolationmode none
attr title "Received Bytes, vector(packetBytes)"
attr unit B
vector 317 medium_network.source2.phy[0].shaper.transmissionSelection qPcp4Bytes:floatingIntervalSumVector(packetBytes) ETV
vector 318 medium_network.source2.phy[0].shaper.transmissionSelection qPcp4Latency:vector ETV
attr interpolationmode none
attr title "End-to-end latency, vector"
attr unit s
vector 319 medium_network.source2.phy[0].shaper.transmissionSelection qPcp5Bytes:vector(packetBytes) ETV
attr interpolationmode none
attr title "Received Bytes, vector(packetBytes)"
attr unit B
vector 320 medium_network.source2.phy[0].shaper.transmissionSelection qPcp5Bytes:floatingIntervalSumVector(packetBytes) ETV
vector 321 medium_network.source2.phy[0].shaper.transmissionSelection qPcp5Latency:vector ETV
attr interpolationmode none
attr title "End-to-end latency, vector"
attr unit s
vector 322 medium_network.source2.phy[0].shaper.transmissionSelection qPcp6Bytes:vector(packetBytes) ETV
attr interpolationmode none
attr title "Received Bytes, vector(packetBytes)"
attr unit B
vector 323 medium_network.source2.phy[0].shaper.transmissionSelection qPcp6Bytes:floatingIntervalSumVector(packetBytes) ETV
vector 324 medium_network.source2.phy[0].shaper.transmissionSelection qPcp6Latency:vector ETV
attr interpolationmode none
attr title "End-to-end latency, vector"
attr unit s
vector 325 medium_network.source2.phy[0].shaper.transmissionSelection qPcp7Bytes:vector(packetBytes) ETV
attr interpolationmode none
attr title "Received Bytes, vector(packetBytes)"
attr unit B
vector 326 medium_network.source2.phy[0].shaper.transmissionSelection qPcp7Bytes:floatingIntervalSumVector(packetBytes) ETV
vector 327 medium_network.source2.phy[0].shaper.transmissionSelection qPcp7Latency:vector ETV
attr interpolationmode none
attr title "End-to-end latency, vector"
attr unit s
vector 328 medium_network.source3.phy[0].shaper.transmissionSelection qPcp0Bytes:vector(packetBytes) ETV
attr interpolationmode none
attr title "Received Bytes, vector(packetBytes)"
attr unit B
vector 329 medium_network.source3.phy[0].shaper.transmissionSelection qPcp0Bytes:floatingIntervalSumVector(packetBytes) ETV
vector 330 medium_network.source3.phy[0].shaper.transmissionSelection qPcp0Latency:vector ETV
attr interpolationmode none
attr title "End-to-end latency, vector"
attr unit s
vector 331 medium_network.source3.phy[0].shaper.transmissionSelection qPcp1Bytes:vector(packetBytes) ETV
attr interpolationmode none
attr title "Received Bytes, vector(packetBytes)"
attr unit B
vector 332 medium_network.source3.phy[0].shaper.transmissionSelection qPcp1Bytes:floatingIntervalSumVector(packetBytes) ETV
vector 333 medium_network.source3.phy[0].shaper.transmissionSelection qPcp1Latency:vector ETV
attr interpolationmode none
attr title "End-to-end latency, vector"
attr unit s
vector 334 medium_network.source3.phy[0].shaper.transmissionSelection qPcp2Bytes:vector(packetBytes) ETV
attr interpolationmode none
attr title "Received Bytes, vector(packetBytes)"
attr unit B
vector 335 medium_network.source3.phy[0].shaper.transmissionSelection qPcp2Bytes:floatingIntervalSumVector(packetBytes) ETV
vector 336 medium_network.source3.phy[0].shaper.transmissionSelection qPcp2Latency:vector ETV
attr interpolationmode none
attr title "End-to-end latency, vector"
attr unit s
vector 337 medium_network.source3.phy[0].shaper.transmissionSelection qPcp3Bytes:vector(packetBytes) ETV
attr interpolationmode none
attr title "Received Bytes, vector(packetBytes)"
attr unit B
vector 338 medium_network.source3.phy[0].shaper.transmissionSelection qPcp3Bytes:floatingIntervalSumVector(packetBytes) ETV
vector 339 medium_network.source3.phy[0].shaper.transmissionSelection qPcp3Latency:vector ETV
attr interpolationmode none
attr title "End-to-end latency, vector"
attr unit s
vector 340 medium_network.source3.phy[0].shaper.transmissionSelection qPcp4Bytes:vector(packetBytes) ETV
attr interpolationmode none
attr title "Received Bytes, vector(packetBytes)"
attr unit B
vector 341 medium_network.source3.phy[0].shaper.transmissionSelection qPcp4Bytes:floatingIntervalSumVector(packetBytes) ETV
vector 342 medium_network.source3.phy[0].shaper.transmissionSelection qPcp4Latency:vector ETV
attr interpolationmode none
attr title "End-to-end latency, vector"
attr unit s
vector 343 medium_network.source3.phy[0].shaper.transmissionSelection qPcp5Bytes:vector(packetBytes) ETV
attr interpolationmode none
attr title "Received Bytes, vector(packetBytes)"
attr unit B
vector 344 medium_network.source3.phy[0].shaper.transmissionSelection qPcp5Bytes:floatingIntervalSumVector(packetBytes) ETV
vector 345 medium_network.source3.phy[0].shaper.transmissionSelection qPcp5Latency:vector ETV
attr interpolationmode none
attr title "End-to-end latency, vector"
attr unit s
vector 346 medium_network.source3.phy[0].shaper.transmissionSelection qPcp6Bytes:vector(packetBytes) ETV
attr interpolationmode none
attr title "Received Bytes, vector(packetBytes)"
attr unit B
vector 347 medium_network.source3.phy[0].shaper.transmissionSelection qPcp6Bytes:floatingIntervalSumVector(packetBytes) ETV
vector 348 medium_network.source3.phy[0].shaper.transmissionSelection qPcp6Latency:vector ETV
attr interpolationmode none
attr title "End-to-end latency, vector"
attr unit s
vector 349 medium_network.source3.phy[0].shaper.transmissionSelection qPcp7Bytes:vector(packetBytes) ETV
attr interpolationmode none
attr title "Received Bytes, vector(packetBytes)"
attr unit B
vector 350 medium_network.source3.phy[0].shaper.transmissionSelection qPcp7Bytes:floatingIntervalSumVector(packetBytes) ETV
vector 351 medium_network.source3.phy[0].shaper.transmissionSelection qPcp7Latency:vector ETV
attr interpolationmode none
attr title "End-to-end latency, vector"
attr unit s
vector 352 medium_network.sink.phy[0].shaper.transmissionSelection qPcp0Bytes:vector(packetBytes) ETV
attr interpolationmode none
attr title "Received Bytes, vector(packetBytes)"
attr unit B
vector 353 medium_network.sink.phy[0].shaper.transmissionSelection qPcp0Bytes:floatingIntervalSumVector(packetBytes) ETV
vector 354 medium_network.sink.phy[0].shaper.transmissionSelection qPcp0Latency:vector ETV
attr interpolationmode none
attr title "End-to-end latency, vector"
attr unit s
vector 355 medium_network.sink.phy[0].shaper.transmissionSelection qPcp1Bytes:vector(packetBytes) ETV
attr interpolationmode none
attr title "Received Bytes, vector(packetBytes)"
attr unit B
vector 356 medium_network.sink.phy[0].shaper.transmissionSelection qPcp1Bytes:floatingIntervalSumVector(packetBytes) ETV
vector 357 medium_network.sink.phy[0].shaper.transmissionSelection qPcp1Latency:vector ETV
attr interpolationmode none
attr title "End-to-end latency, vector"
attr unit s
vector 358 medium_network.sink.phy[0].shaper.transmissionSelection qPcp2Bytes:vector(packetBytes) ETV
attr interpolationmode none
attr title "Received Bytes, vector(packetBytes)"
attr unit B
vector 359 medium_network.sink.phy[0].shaper.transmissionSelection qPcp2Bytes:floatingIntervalSumVector(packetBytes) ETV
vector 360 medium_network.sink.phy[0].shaper.transmissionSelection qPcp2Latency:vector ETV
attr interpolationmode none
attr title "End-to-end latency, vector"
attr unit s
vector 361 medium_network.sink.phy[0].shaper.transmissionSelection qPcp3Bytes:vector(packetBytes) ETV
attr interpolationmode none
attr title "Received Bytes, vector(packetBytes)"
attr unit B
vector 362 medium_network.sink.phy[0].shaper.transmissionSelection qPcp3Bytes:floatingIntervalSumVector(packetBytes) ETV
vector 363 medium_network.sink.phy[0].shaper.transmissionSelection qPcp3Latency:vector ETV
attr interpolationmode none
attr title "End-to-end latency, vector"
attr unit s
vector 364 medium_network.sink.phy[0].shaper.transmissionSelection qPcp4Bytes:vector(packetBytes) ETV
attr interpolationmode none
attr title "Received Bytes, vector(packetBytes)"
attr unit B
vector 365 medium_network.sink.phy[0].shaper.transmissionSelection qPcp4Bytes:floatingIntervalSumVector(packetBytes) ETV
vector 366 medium_network.sink.phy[0].shaper.transmissionSelection qPcp4Latency:vector ETV
attr interpolationmode none
attr title "End-to-end latency, vector"
attr unit s
vector 367 medium_network.sink.phy[0].shaper.transmissionSelection qPcp5Bytes:vector(packetBytes) ETV
attr interpolationmode none
attr title "Received Bytes, vector(packetBytes)"
attr unit B
vector 368 medium_network.sink.phy[0].shaper.transmissionSelection qPcp5Bytes:floatingIntervalSumVector(packetBytes) ETV
vector 369 medium_network.sink.phy[0].shaper.transmissionSelection qPcp5Latency:vector ETV
attr interpolationmode none
attr title "End-to-end latency, vector"
attr unit s
vector 370 medium_network.sink.phy[0].shaper.transmissionSelection qPcp6Bytes:vector(packetBytes) ETV
attr interpolationmode none
attr title "Received Bytes, vector(packetBytes)"
attr unit B
vector 371 medium_network.sink.phy[0].shaper.transmissionSelection qPcp6Bytes:floatingIntervalSumVector(packetBytes) ETV
vector 372 medium_network.sink.phy[0].shaper.transmissionSelection qPcp6Latency:vector ETV
attr interpolationmode none
attr title "End-to-end latency, vector"
attr unit s
vector 373 medium_network.sink.phy[0].shaper.transmissionSelection qPcp7Bytes:vector(packetBytes) ETV
attr interpolationmode none
attr title "Received Bytes, vector(packetBytes)"
attr unit B
vector 374 medium_network.sink.phy[0].shaper.transmissionSelection qPcp7Bytes:floatingIntervalSumVector(packetBytes) ETV
vector 375 medium_network.sink.phy[0].shaper.transmissionSelection qPcp7Latency:vector ETV
attr interpolationmode none
attr title "End-to-end latency, vector"
attr unit s
vector 376 medium_network.source1.app[1] payloadOverTime:vector ETV
attr interpolationmode linear
attr source payloadSignal
attr title "payload over time, vector"
attr unit B
vector 377 medium_network.source1.app[1] txQPcp0Bytes:vector(packetBytes) ETV
attr interpolationmode none
attr title "Send Bytes, vector(packetBytes)"
attr unit B
vector 378 medium_network.source1.app[1] txQPcp0Bytes:floatingIntervalSumVector(packetBytes) ETV
vector 379 medium_network.source2.app[1] payloadOverTime:vector ETV
attr interpolationmode linear
attr source payloadSignal
attr title "payload over time, vector"
attr unit B
vector 380 medium_network.source2.app[1] txQPcp0Bytes:vector(packetBytes) ETV
attr interpolationmode none
attr title "Send Bytes, vector(packetBytes)"
attr unit B
vector 381 medium_network.source2.app[1] txQPcp0Bytes:floatingIntervalSumVector(packetBytes) ETV
vector 382 medium_network.source3.app[1] payloadOverTime:vector ETV
attr interpolationmode linear
attr source payloadSignal
attr title "payload over time, vector"
attr unit B
vector 383 medium_network.source3.app[1] txQPcp0Bytes:vector(packetBytes) ETV
attr interpolationmode none
attr title "Send Bytes, vector(packetBytes)"
attr unit B
vector 384 medium_network.source3.app[1] txQPcp0Bytes:floatingIntervalSumVector(packetBytes) ETV
vector 385 medium_network.switch1.etherMAC[0].shaper.transmissionGate[7] state:vector ETV
attr "" ""
attr interpolationmode sample-hold
attr source NF_QBV_STATE_CHANGED
attr title "State, vector"
vector 386 medium_network.switch2.etherMAC[2].shaper.transmissionGate[7] state:vector ETV
attr "" ""
attr interpolationmode sample-hold
attr source NF_QBV_STATE_CHANGED
attr title "State, vector"
vector 387 medium_network.source1.phy[0].shaper.transmissionGate[7] state:vector ETV
attr "" ""
attr interpolationmode sample-hold
attr source NF_QBV_STATE_CHANGED
attr title "State, vector"
vector 388 medium_network.source2.phy[0].shaper.transmissionGate[7] state:vector ETV
attr "" ""
attr interpolationmode sample-hold
attr source NF_QBV_STATE_CHANGED
attr title "State, vector"
vector 389 medium_network.source2.phy[0].shaper.transmissionGate[6] state:vector ETV
attr "" ""
attr interpolationmode sample-hold
attr source NF_QBV_STATE_CHANGED
attr title "State, vector"
vector 390 medium_network.source2.phy[0].shaper.transmissionGate[5] state:vector ETV
attr "" ""
attr interpolationmode sample-hold
attr source NF_QBV_STATE_CHANGED
attr title "State, vector"
vector 391 medium_network.source2.phy[0].shaper.transmissionGate[4] state:vector ETV
attr "" ""
attr interpolationmode sample-hold
attr source NF_QBV_STATE_CHANGED
attr title "State, vector"
vector 392 medium_network.source2.phy[0].shaper.transmissionGate[3] state:vector ETV
attr "" ""
attr interpolationmode sample-hold
attr source NF_QBV_STATE_CHANGED
attr title "State, vector"
vector 393 medium_network.source2.phy[0].shaper.transmissionGate[2] state:vector ETV
attr "" ""
attr interpolationmode sample-hold
attr source NF_QBV_STATE_CHANGED
attr title "State, vector"
vector 394 medium_network.source2.phy[0].shaper.transmissionGate[1] state:vector ETV
attr "" ""
attr interpolationmode sample-hold
attr source NF_QBV_STATE_CHANGED
attr title "State, vector"
vector 395 medium_network.source2.phy[0].shaper.transmissionGate[0] state:vector ETV
attr "" ""
attr interpolationmode sample-hold
attr source NF_QBV_STATE_CHANGED
attr title "State, vector"
vector 396 medium_network.source3.phy[0].shaper.transmissionGate[7] state:vector ETV
attr "" ""
attr interpolationmode sample-hold
attr source NF_QBV_STATE_CHANGED
attr title "State, vector"
vector 397 medium_network.source3.phy[0].shaper.transmissionGate[6] state:vector ETV
attr "" ""
attr interpolationmode sample-hold
attr source NF_QBV_STATE_CHANGED
attr title "State, vector"
vector 398 medium_network.source3.phy[0].shaper.transmissionGate[5] state:vector ETV
attr "" ""
attr interpolationmode sample-hold
attr source NF_QBV_STATE_CHANGED
attr title "State, vector"
vector 399 medium_network.source3.phy[0].shaper.transmissionGate[4] state:vector ETV
attr "" ""
attr interpolationmode sample-hold
attr source NF_QBV_STATE_CHANGED
attr title "State, vector"
vector 400 medium_network.source3.phy[0].shaper.transmissionGate[3] state:vector ETV
attr "" ""
attr interpolationmode sample-hold
attr source NF_QBV_STATE_CHANGED
attr title "State, vector"
vector 401 medium_network.source3.phy[0].shaper.transmissionGate[2] state:vector ETV
attr "" ""
attr interpolationmode sample-hold
attr source NF_QBV_STATE_CHANGED
attr title "State, vector"
vector 402 medium_network.source3.phy[0].shaper.transmissionGate[1] state:vector ETV
attr "" ""
attr interpolationmode sample-hold
attr source NF_QBV_STATE_CHANGED
attr title "State, vector"
vector 403 medium_network.source3.phy[0].shaper.transmissionGate[0] state:vector ETV
attr "" ""
attr interpolationmode sample-hold
attr source NF_QBV_STATE_CHANGED
attr title "State, vector"
vector 404 medium_network.switch1.tcp tcpRcvQueueBytes ETV
vector 405 medium_network.switch1.tcp "advertised window" ETV
vector 406 medium_network.switch1.tcp "receive window" ETV
vector 407 medium_network.switch1.tcp "sent ack" ETV
vector 408 medium_network.switch2.tcp tcpRcvQueueBytes ETV
vector 409 medium_network.switch2.tcp "advertised window" ETV
vector 410 medium_network.switch2.tcp "receive window" ETV
vector 411 medium_network.switch2.tcp "sent ack" ETV
vector 412 medium_network.switch1.networkLayer.arp sentReq:vector ETV
attr title "ARP request sent, vector"
vector 413 medium_network.switch2.networkLayer.arp sentReq:vector ETV
attr title "ARP request sent, vector"
vector 414 medium_network.switch1.eth[0].encap encapPk:vector(packetBytes) ETV
attr interpolationmode none
attr source encapPk
attr title "packets encapsulated, vector(packetBytes)"
vector 415 medium_network.switch2.eth[0].encap encapPk:vector(packetBytes) ETV
attr interpolationmode none
attr source encapPk
attr title "packets encapsulated, vector(packetBytes)"
vector 416 medium_network.switch1.eth[0].shaper.queue[0] rxBytes:vector(packetBytes) ETV
attr interpolationmode none
attr source rxPk
attr title "Received Bytes, vector(packetBytes)"
attr unit B
vector 417 medium_network.switch1.eth[0].shaper.queue[0] rxLatency:vector ETV
attr interpolationmode none
attr source messageAge(rxPk)
attr title "End-to-end latency (received), vector"
attr unit s
vector 418 medium_network.switch1.eth[0].shaper.queue[0] length:vector ETV
attr interpolationmode sample-hold
attr source length
attr title "Queue Length, vector"
attr unit packets
vector 419 medium_network.switch1.eth[0].shaper.queue[0] size:vector ETV
attr interpolationmode sample-hold
attr source size
attr title "Queue Size, vector"
attr unit B
vector 420 medium_network.switch1.eth[0].shaper.queue[0] state:vector ETV
attr "" ""
attr interpolationmode sample-hold
attr source NF_QBV_STATE_CHANGED
attr title "State, vector"
vector 421 medium_network.switch2.eth[0].shaper.queue[0] rxBytes:vector(packetBytes) ETV
attr interpolationmode none
attr source rxPk
attr title "Received Bytes, vector(packetBytes)"
attr unit B
vector 422 medium_network.switch2.eth[0].shaper.queue[0] rxLatency:vector ETV
attr interpolationmode none
attr source messageAge(rxPk)
attr title "End-to-end latency (received), vector"
attr unit s
vector 423 medium_network.switch2.eth[0].shaper.queue[0] length:vector ETV
attr interpolationmode sample-hold
attr source length
attr title "Queue Length, vector"
attr unit packets
vector 424 medium_network.switch2.eth[0].shaper.queue[0] size:vector ETV
attr interpolationmode sample-hold
attr source size
attr title "Queue Size, vector"
attr unit B
vector 425 medium_network.switch2.eth[0].shaper.queue[0] state:vector ETV
attr "" ""
attr interpolationmode sample-hold
attr source NF_QBV_STATE_CHANGED
attr title "State, vector"
vector 426 medium_network.switch1.eth[0].mac rxPkFromHL:vector(packetBytes) ETV
attr interpolationmode none
attr source rxPkFromHL
attr title "packet bytes from higher layer, vector(packetBytes)"
vector 427 medium_network.switch2.eth[0].mac rxPkFromHL:vector(packetBytes) ETV
attr interpolationmode none
attr source rxPkFromHL
attr title "packet bytes from higher layer, vector(packetBytes)"
vector 428 medium_network.source1.bgOut rxBytes:vector(packetBytes) ETV
attr interpolationmode none
attr source rxPk
attr title "Received Bytes, vector(packetBytes)"
attr unit B
vector 429 medium_network.source1.bgOut rxLatency:vector ETV
attr interpolationmode none
attr source messageAge(rxPk)
attr title "End-to-end latency (received), vector"
attr unit s
vector 430 medium_network.source1.bgOut length:vector ETV
attr interpolationmode sample-hold
attr source length
attr title "Queue Length, vector"
attr unit packets
vector 431 medium_network.source1.bgOut size:vector ETV
attr interpolationmode sample-hold
attr source size
attr title "Queue Size, vector"
attr unit B
vector 432 medium_network.source1.bgOut txBytes:vector(packetBytes) ETV
attr interpolationmode none
attr source txPk
attr title "Transmitted Bytes, vector(packetBytes)"
attr unit B
vector 433 medium_network.source1.bgOut txLatency:vector ETV
attr interpolationmode none
attr source messageAge(txPk)
attr title "End-to-end latency (transmitted), vector"
attr unit s
vector 434 medium_network.source2.bgOut rxBytes:vector(packetBytes) ETV
attr interpolationmode none
attr source rxPk
attr title "Received Bytes, vector(packetBytes)"
attr unit B
vector 435 medium_network.source2.bgOut rxLatency:vector ETV
attr interpolationmode none
attr source messageAge(rxPk)
attr title "End-to-end latency (received), vector"
attr unit s
vector 436 medium_network.source2.bgOut length:vector ETV
attr interpolationmode sample-hold
attr source length
attr title "Queue Length, vector"
attr unit packets
vector 437 medium_network.source2.bgOut size:vector ETV
attr interpolationmode sample-hold
attr source size
attr title "Queue Size, vector"
attr unit B
vector 438 medium_network.source2.bgOut txBytes:vector(packetBytes) ETV
attr interpolationmode none
attr source txPk
attr title "Transmitted Bytes, vector(packetBytes)"
attr unit B
vector 439 medium_network.source2.bgOut txLatency:vector ETV
attr interpolationmode none
attr source messageAge(txPk)
attr title "End-to-end latency (transmitted), vector"
attr unit s
vector 440 medium_network.source3.bgOut rxBytes:vector(packetBytes) ETV
attr interpolationmode none
attr source rxPk
attr title "Received Bytes, vector(packetBytes)"
attr unit B
vector 441 medium_network.source3.bgOut rxLatency:vector ETV
attr interpolationmode none
attr source messageAge(rxPk)
attr title "End-to-end latency (received), vector"
attr unit s
vector 442 medium_network.source3.bgOut length:vector ETV
attr interpolationmode sample-hold
attr source length
attr title "Queue Length, vector"
attr unit packets
vector 443 medium_network.source3.bgOut size:vector ETV
attr interpolationmode sample-hold
attr source size
attr title "Queue Size, vector"
attr unit B
vector 444 medium_network.source3.bgOut txBytes:vector(packetBytes) ETV
attr interpolationmode none
attr source txPk
attr title "Transmitted Bytes, vector(packetBytes)"
attr unit B
vector 445 medium_network.source3.bgOut txLatency:vector ETV
attr interpolationmode none
attr source messageAge(txPk)
attr title "End-to-end latency (transmitted), vector"
attr unit s
vector 446 medium_network.source1.phy[0].shaper.queue[0] rxBytes:vector(packetBytes) ETV
attr interpolationmode none
[...]
462	21327111 11547 407828 438166 0.561138981617 0.593273136289 393 64 594 125604 65633688
464	21338658 11547 407829 438167 0.561139031617 0.593273186289 393 64 594 125604 65633688
465	21350205 11547 407829 438167 0.561139031617 0.593273186289 393 64 594 125604 65633688
468	21361752 13971 407830 438168 0.561139031617 0.593273186289 393 6.26e-07 1.4146e-05 0.00202221 2.1156588516e-08
469	21375723 13314 407830 438168 0.561139031617 0.593273186289 393 1380004 1505014 566856606 8.1813491127584e+14
472	21389037 11487 407842 438153 0.561147031617 0.593271906289 391 64 594 124484 65004176
474	21400524 11457 407893 438028 0.561160523617 0.593184517441 390 64 594 124280 65063960
475	21411981 11487 407848 438170 0.561151847617 0.593276722289 391 64 594 124484 65004176
477	21423468 11457 407894 438042 0.561161099617 0.593188837441 390 64 594 124280 65063960
478	21434925 11487 407849 438171 0.561151897617 0.593276772289 391 64 594 124484 65004176
479	21446412 11487 407849 438171 0.561151897617 0.593276772289 391 64 594 124484 65004176
482	21457899 11457 407896 438044 0.561161149617 0.593188887441 390 64 594 124280 65063960
483	21469356 11457 407896 438044 0.561161149617 0.593188887441 390 64 594 124280 65063960
484	21480813 14224 407851 438173 0.561151897617 0.593276772289 391 9.252e-06 2.7012e-05 0.006202092 1.18199802864e-07
485	21495037 13246 407851 438173 0.561151897617 0.593276772289 391 1384901 1508791 565761831 8.1913805494819e+14
488	21508283 14187 407898 438046 0.561161149617 0.593188887441 390 9.252e-06 2.7232e-05 0.00622102 1.1956772152e-07
489	21522470 13212 407898 438046 0.561161149617 0.593188887441 390 1384004 1508220 563888390 8.1581004085386e+14
490	21535682 11487 407852 438174 0.561151897617 0.593276772289 391 40 576 116276 60548816
492	21547169 11457 407899 438047 0.561161149617 0.593188887441 390 40 576 116090 60615620
494	21558626 11457 407856 437907 0.561151897617 0.593161655441 390 40 576 116090 60615620
495	21570083 11457 407858 437913 0.561151897617 0.593161655441 390 64 594 124280 65063960
496	21581540 10872 407858 437913 0.561151897617 0.593161655441 390 0 0 0 0
497	21592412 21744 407858 437970 0.561151897617 0.593171651441 780 0 3 780 1430
498	21614156 22784 407858 437970 0.561151897617 0.593171651441 780 0 1720 347880 408574920
499	21636940 10872 407858 437913 0.561151897617 0.593161655441 390 1 3 585 1105
500	21647812 11457 407861 437972 0.561151897617 0.593171651441 390 64 594 124280 65063960
501	21659269 11457 407866 437976 0.561152473617 0.593175971441 390 64 594 124280 65063960
502	21670726 11457 407867 437977 0.561152523617 0.593176021441 390 64 594 124280 65063960
503	21682183 11457 407867 437977 0.561152523617 0.593176021441 390 64 594 124280 65063960
504	21693640 13797 407868 437978 0.561152523617 0.593176021441 390 6.26e-07 1.4366e-05 0.00203008 2.157619932e-08
505	21707437 13212 407868 437978 0.561152523617 0.593176021441 390 1389027 1513243 565847360 8.2148470352611e+14
506	21720649 1812 408132 438129 0.561261187507 0.593261085564 65 0 1 33 33
507	21722461 1812 408132 438129 0.561261187507 0.593261085564 65 0 1 33 33
508	21724273 1812 408132 438129 0.561261187507 0.593261085564 65 0 1 33 33
509	21726085 1812 408132 438129 0.561261187507 0.593261085564 65 0 1 33 33
510	21727897 1812 408132 438129 0.561261187507 0.593261085564 65 0 1 33 33
511	21729709 1812 408132 438129 0.561261187507 0.593261085564 65 0 1 33 33
512	21731521 1812 408132 438129 0.561261187507 0.593261085564 65 0 1 33 33
513	21733333 1811 408159 438156 0.561273094266 0.593272934126 65 0 1 33 33
514	21735144 1811 408159 438156 0.561273094266 0.593272934126 65 0 1 33 33
515	21736955 1811 408159 438156 0.561273094266 0.593272934126 65 0 1 33 33
516	21738766 1811 408159 438156 0.561273094266 0.593272934126 65 0 1 33 33
517	21740577 1811 408159 438156 0.561273094266 0.593272934126 65 0 1 33 33
518	21742388 1811 408159 438156 0.561273094266 0.593272934126 65 0 1 33 33
519	21744199 1811 408159 438156 0.561273094266 0.593272934126 65 0 1 33 33
520	21746010 1775 408426 437731 0.561401312585 0.593013109185 64 0 1 32 32
521	21747785 1775 408426 437731 0.561401312585 0.593013109185 64 0 1 32 32
522	21749560 1775 408426 437731 0.561401312585 0.593013109185 64 0 1 32 32
523	21751335 1775 408426 437731 0.561401312585 0.593013109185 64 0 1 32 32
524	21753110 1775 408426 437731 0.561401312585 0.593013109185 64 0 1 32 32
525	21754885 1775 408426 437731 0.561401312585 0.593013109185 64 0 1 32 32
526	21756660 1775 408426 437731 0.561401312585 0.593013109185 64 0 1 32 32
527	21758435 3592 408097 438094 0.561257568607 0.593257490289 128 64 1522 126064 151866380
528	21762027 3610 408098 438095 0.561257618607 0.593257540289 128 64 1522 126064 151866380
529	21765637 3610 408098 438095 0.561257618607 0.593257540289 128 64 1522 126064 151866380
530	21769247 4475 408100 438097 0.561257618607 0.593257540289 128 5.81e-06 0.00036046226 0.013149160358 1.9817757406921e-06
531	21773722 4065 408100 438097 0.561257618607 0.593257540289 128 1649919 1774461 218868267 3.7440688792067e+14
532	21777787 13212 407854 438083 0.561151897617 0.593198139441 390 1113927 1214027 454055550 5.2895761268779e+14
533	21790999 13212 407854 438083 0.561151897617 0.593198139441 390 1118411 1218901 455679380 5.3274799289959e+14
534	21804211 13212 407854 437901 0.561151897617 0.593161655441 390 1121967 1221531 457082210 5.3602856978463e+14
535	21817423 6021 408044 438083 0.561188833617 0.593198139441 195 7504 7504 1463280 10980453120
536	21823444 16308 407854 437901 0.561151897617 0.593161655441 585 0 0 0 0
537	21839752 12042 407854 437901 0.561151897617 0.593161655441 390 7504 7504 2926560 21960906240
538	21851794 13212 407854 437901 0.561151897617 0.593161655441 390 1114463 1214027 454155650 5.2919064088319e+14
546	21865006 13212 407901 438049 0.561161149617 0.593188887441 390 1118411 1218427 455578890 5.3251311641671e+14
547	21878218 13212 407901 438049 0.561161149617 0.593188887441 390 1114463 1214027 454155650 5.2919064088319e+14
548	21891430 6021 407901 437964 0.561161149617 0.593170407441 195 7504 7504 1463280 10980453120
549	21897451 6606 408113 438110 0.561259118607 0.593259040289 195 1115467 1215099 227230185 2.6495029563984e+14
550	21904057 7768 407901 438110 0.561161149617 0.593259040289 260 0 1540 195780 233911600
556	21911825 7768 407920 438083 0.561161677617 0.593198139441 260 0 1546 196950 236267980
557	21919593 6606 408044 438083 0.561188833617 0.593198139441 195 1167944 1271928 237887520 2.9038506692416e+14
558	21926199 10872 407854 438083 0.561151897617 0.593198139441 390 0 0 0 0
559	21937071 1812 407908 437889 0.561161177617 0.593161155441 65 0 0 0 0
560	21938883 1812 407919 437900 0.561161677617 0.593161655441 65 0 0 0 0
564	21940695 6606 407920 437901 0.561161677617 0.593161655441 195 1118411 1218427 227841705 2.6637867202512e+14
566	21947301 2397 407901 437882 0.561161149617 0.593161127441 65 2.6984e-05 2.6984e-05 0.00175396 4.732885664e-08
567	21949698 2592 407901 437882 0.561161149617 0.593161127441 65 2.6983997e-05 2.6983997e-05 0.001753959805 4.7328846116241e-08
568	21952290 2072 407901 437882 0.561161149617 0.593161127441 65 7e-12 7e-12 4.55e-10 3.185e-21
569	21954362 1812 407901 437882 0.561161149617 0.593161127441 65 1 1 65 65
570	21956174 6606 407901 437964 0.561161149617 0.593170407441 195 1166336 1270320 237573960 2.8962052486432e+14
571	21962780 10872 407901 438049 0.561161149617 0.593188887441 390 0 0 0 0
578	21973652 2397 408044 438041 0.561188833617 0.593188811441 65 2.7156e-05 2.7156e-05 0.00176514 4.793414184e-08
579	21976049 2592 408044 438041 0.561188833617 0.593188811441 65 2.7155997e-05 2.7155997e-05 0.001765139805 4.7934131249161e-08
580	21978641 2072 408044 438041 0.561188833617 0.593188811441 65 7e-12 7e-12 4.55e-10 3.185e-21
581	21980713 1812 408044 438041 0.561188833617 0.593188811441 65 1 1 65 65
590	21982525 2254 407827 437930 0.561136191992 0.593164 81 64 1522 85671 109965121
591	21984779 2484 407816 437955 0.561136004588 0.593168 90 64 1522 92230 117560298
592	21987263 1784 408267 437480 0.561288909617 0.592413901786 64 0 0 0 0
594	21989047 2572 407983 437980 0.561178804588 0.59317608 90 64 1522 92230 117560298
595	21991619 2577 407984 437981 0.561178854588 0.59317613 90 64 1522 92230 117560298
596	21994196 2577 407984 437981 0.561178854588 0.59317613 90 64 1522 92230 117560298
597	21996773 3182 407986 437983 0.561178854588 0.59317613 90 5.81e-06 0.000352660696 0.009552990934 1.4127405935646e-06
598	21999955 2888 407986 437983 0.561178854588 0.59317613 90 1322659 1414362 123210021 1.687421815648e+14
599	22002843 2319 408088 438085 0.561244271992 0.59321488 81 64 1522 85671 109965121
600	22005162 2328 408089 438086 0.561244321992 0.59321493 81 64 1522 85671 109965121
601	22007490 2328 408089 438086 0.561244321992 0.59321493 81 64 1522 85671 109965121
602	22009818 2868 408091 438088 0.561244321992 0.59321493 81 5.81e-06 0.000288321992 0.00824790601 1.045049369098e-06
603	22012686 2607 408091 438088 0.561244321992 0.59321493 81 1335642 1419970 111520507 1.5358923915198e+14
609	22015293 5560 408012 437987 0.561181854588 0.59317913 201 64 1521 155703 154298467
610	22020853 7125 408012 437987 0.561181854588 0.59317913 201 8.81e-06 0.00048659226 0.032962377833 7.8243770682105e-06
611	22027978 10396 408012 437987 0.561181854588 0.59317913 401 0 4 383 653
612	22038374 11067 408012 437987 0.561181854588 0.59317913 401 0 2948 289236 414773280
613	22049441 5104 408012 437987 0.561181854588 0.59317913 201 1 4 292 518
615	22054545 3931 408095 438092 0.561247321992 0.59321793 144 64 1506 112805 111260041
616	22058476 4951 408095 438092 0.561247321992 0.59321793 144 8.81e-06 0.00036346226 0.013869816368 2.1341378454981e-06
617	22063427 7299 408095 438157 0.561247321992 0.593272934126 288 0 2 152 160
618	22070726 7634 408095 438157 0.561247321992 0.593272934126 288 0 1506 117140 116651794
619	22078360 3606 408095 438092 0.561247321992 0.59321793 144 1 2 148 156
625	22081966 4018 408168 438165 0.561273094266 0.593272934126 144 64 1506 112805 111260041
632	22085984 6737 408435 437790 0.561401312585 0.593135444314 232 64 1522 204314 228417306
633	22092721 6764 408101 438098 0.561257856163 0.593257844314 233 64 1522 205836 230733790
634	22099485 6769 408102 438099 0.561257906163 0.593257894314 233 64 1522 205836 230733790
635	22106254 6769 408102 438099 0.561257906163 0.593257894314 233 64 1522 205836 230733790
636	22113023 8753 408104 438101 0.561257906163 0.593257894314 233 2.343e-05 0.000715574973 0.071300447776 2.7515913434787e-05
637	22121776 7613 408104 438101 0.561257906163 0.593257894314 233 3204659 3408973 769766600 2.5438906442021e+15
638	22129389 6769 408106 438103 0.561257906163 0.593257894314 233 64 1522 205836 230733790
639	22136158 8753 408106 438103 0.561257906163 0.593257894314 233 2.343e-05 0.000715574973 0.071300447776 2.7515913434787e-05
640	22144911 12430 408106 438103 0.561257906163 0.593257894314 466 0 1 233 233
641	22157341 12984 408106 438103 0.561257906163 0.593257894314 466 0 1522 205836 230733790
642	22170325 6769 408106 438103 0.561257906163 0.593257894314 233 64 1522 205836 230733790
643	22177094 8753 408106 438103 0.561257906163 0.593257894314 233 2.343e-05 0.000715574973 0.071300447776 2.7515913434787e-05
644	22185847 1644 408452 437597 0.561444162585 0.59263774 57 64 1521 43433 43424161
645	22187491 1797 408452 437597 0.561444162585 0.59263774 57 772151 815057 45246952 35927009584154
646	22189288 2160 408452 437597 0.561444162585 0.59263774 57 2.742e-05 0.00064849747 0.015214264227 5.4809945194451e-06
647	22191448 2160 408452 437597 0.561444162585 0.59263774 57 2.742e-05 0.00064849747 0.015214264227 5.4809945194451e-06
648	22193608 2665 408108 438105 0.561257906163 0.593257894314 90 64 1522 93659 119868133
649	22196273 2974 408108 438105 0.561257906163 0.593257894314 90 1322588 1414725 123158831 1.6860209686281e+14
650	22199247 3346 408108 438105 0.561257906163 0.593257894314 90 2.742e-05 0.00064849747 0.023394964227 7.5089900494451e-06
651	22202593 3346 408108 438105 0.561257906163 0.593257894314 90 2.742e-05 0.00064849747 0.023394964227 7.5089900494451e-06
652	22205939 3988 408414 437644 0.561381174266 0.59291325 143 64 1506 112177 110865657
654	22209927 3973 408415 437645 0.561381224266 0.5929133 143 64 1506 112177 110865657
655	22213900 3973 408415 437645 0.561381224266 0.5929133 143 64 1506 112177 110865657
658	22217873 5120 408417 437647 0.561381224266 0.5929133 143 1.462e-05 0.00048359226 0.026724786899 6.6954792876479e-06
659	22222993 4508 408417 437647 0.561381224266 0.5929133 143 1883870 1994704 276881269 5.3624580158091e+14
662	22227501 1378 408500 437575 0.561553202585 0.59260427 48 64 1483 36339 35443249
663	22228879 1509 408500 437575 0.561553202585 0.59260427 48 632478 667474 31146929 20215874672499
664	22230388 1815 408500 437575 0.561553202585 0.59260427 48 4.623e-05 0.000709124966 0.016560288586 6.9688847345856e-06
665	22232203 1815 408500 437575 0.561553202585 0.59260427 48 4.623e-05 0.000709124966 0.016560288586 6.9688847345856e-06
666	22234018 1378 408500 437575 0.561553202585 0.59260427 48 64 1483 36339 35443249
667	22235396 1509 408500 437575 0.561553202585 0.59260427 48 632478 667474 31146929 20215874672499
668	22236905 1815 408500 437575 0.561553202585 0.59260427 48 4.623e-05 0.000709124966 0.016560288586 6.9688847345856e-06
669	22238720 1815 408500 437575 0.561553202585 0.59260427 48 4.623e-05 0.000709124966 0.016560288586 6.9688847345856e-06
670	22240535 2726 408522 437663 0.561633602585 0.59297995 95 64 1506 75838 75422408
671	22243261 3082 408522 437663 0.561633602585 0.59297995 95 1251921 1326774 122292206 1.5746804438184e+14
672	22246343 3592 408522 437663 0.561633602585 0.59297995 95 2.343e-05 0.000715574973 0.031345194963 1.3038038650756e-05
673	22249935 3592 408522 437663 0.561633602585 0.59297995 95 2.343e-05 0.000715574973 0.031345194963 1.3038038650756e-05
674	22253527 2726 408522 437663 0.561633602585 0.59297995 95 64 1506 75838 75422408
675	22256253 3082 408522 437663 0.561633602585 0.59297995 95 1251921 1326774 122292206 1.5746804438184e+14
676	22259335 3592 408522 437663 0.561633602585 0.59297995 95 2.343e-05 0.000715574973 0.031345194963 1.3038038650756e-05
677	22262927 3592 408522 437663 0.561633602585 0.59297995 95 2.343e-05 0.000715574973 0.031345194963 1.3038038650756e-05
678	22266519 894 408648 437666 0.5620001386 0.592999735909 32 1 1 32 32
679	22267413 1060 408649 437667 0.5620001386 0.592999735909 32 -1.4e-11 5e-12 -1.87e-10 1.767e-21
680	22268473 913 408650 437668 0.5620001386 0.592999735909 32 -7 5 -27 337
681	22269386 893 408652 437670 0.562000164886 0.592999824801 32 1 1 32 32
682	22270279 1022 408653 437671 0.562000164886 0.592999824801 32 -1e-11 7e-12 4.6e-11 7.26e-22
683	22271301 905 408654 437672 0.562000164886 0.592999824801 32 -4 5 9 211
684	22272206 891 408634 437684 0.561999957077 0.59300003915 32 1 1 32 32
685	22273097 1042 408635 437685 0.561999957077 0.59300003915 32 -5e-12 1.6e-11 2.64e-10 2.964e-21
686	22274139 900 408636 437686 0.561999957077 0.59300003915 32 -4 7 38 266
687	22275039 894 408661 437688 0.562000258351 0.59300013535 32 1 1 32 32
688	22275933 1053 408662 437689 0.562000258351 0.59300013535 32 -6e-12 1.5e-11 2.56e-10 3.25e-21
689	22276986 900 408663 437690 0.562000258351 0.59300013535 32 -7 6 43 285
690	22277886 889 408656 437698 0.562000190571 0.59300028731 32 1 1 32 32
691	22278775 1063 408657 437699 0.562000190571 0.59300028731 32 2e-12 1.6e-11 3.81e-10 5.001e-21
692	22279838 895 408658 437700 0.562000190571 0.59300028731 32 -5 7 63 369
693	22280733 887 408666 437674 0.562000265098 0.59299991001 32 1 1 32 32
694	22281620 1036 408667 437675 0.562000265098 0.59299991001 32 -9e-12 2e-12 -1.23e-10 6.43e-22
695	22282656 905 408668 437676 0.562000265098 0.59299991001 32 -4 4 -16 186
696	22283561 889 408643 437693 0.562000029992 0.593000272201 32 1 1 32 32
697	22284450 1051 408644 437694 0.562000029992 0.593000272201 32 -1.6e-11 1.3e-11 -7.3e-11 2.249e-21
698	22285501 904 408645 437695 0.562000029992 0.593000272201 32 -6 6 -15 261
699	22286405 893 408638 437679 0.561999993788 0.592999915952 32 1 1 32 32
700	22287298 1071 408639 437680 0.561999993788 0.592999915952 32 -1.4e-11 2e-12 -2.56e-10 2.646e-21
701	22288369 912 408640 437681 0.561999993788 0.592999915952 32 -6 4 -38 276
702	22289281 988 408677 437720 0.562009868024 0.593010193441 32 1500 1500 48000 72000000
703	22290269 988 408677 437720 0.562009868024 0.593010193441 32 1522 1522 48704 74127488
704	22291257 1052 408677 437720 0.562009868024 0.593010193441 32 704686 751868 23304864 16978715807680
705	22292309 988 408681 437724 0.562009868024 0.593010193441 32 1522 1522 48704 74127488
706	22293297 892 408681 437724 0.562009868024 0.593010193441 32 0 0 0 0
707	22294189 1784 408681 437725 0.562009868024 0.593010193441 64 0 1 32 32
708	22295973 1880 408681 437725 0.562009868024 0.593010193441 64 0 1522 48704 74127488
709	22297853 892 408681 437724 0.562009868024 0.593010193441 32 1 1 32 32
710	22298745 990 408688 437709 0.562010234044 0.593009994314 32 1500 1500 48000 72000000
711	22299735 990 408688 437709 0.562010234044 0.593009994314 32 1522 1522 48704 74127488
712	22300725 1054 408688 437709 0.562010234044 0.593009994314 32 552486 599668 18434464 10625990086080
713	22301779 990 408692 437713 0.562010234044 0.593009994314 32 1522 1522 48704 74127488
714	22302769 894 408692 437713 0.562010234044 0.593009994314 32 0 0 0 0
715	22303663 1788 408692 437714 0.562010234044 0.593009994314 64 0 1 32 32
716	22305451 1884 408692 437714 0.562010234044 0.593009994314 64 0 1522 48704 74127488
717	22307335 894 408692 437713 0.562010234044 0.593009994314 32 1 1 32 32
718	22308229 990 408761 437787 0.562135684044 0.593135444314 32 1522 1522 48704 74127488
719	22309219 1182 408761 437787 0.562135684044 0.593135444314 32 0.00012545 0.00012545 0.0040144 5.0360648e-07
720	22310401 1788 408761 437788 0.562135684044 0.593135444314 64 0 1 32 32
721	22312189 1884 408761 437788 0.562135684044 0.593135444314 64 0 1522 48704 74127488
722	22314073 894 408761 437787 0.562135684044 0.593135444314 32 1 1 32 32
723	22314967 1021 408108 438105 0.561257906163 0.593257894314 33 1522 1522 50226 76443972
724	22315988 1087 408108 438105 0.561257906163 0.593257894314 33 550964 599668 18985428 10929551415376
725	22317075 1186 408108 438105 0.561257906163 0.593257894314 33 0.0002479 0.0002479 0.0081807 2.02799553e-06
726	22318261 1186 408108 438105 0.561257906163 0.593257894314 33 0.0002479 0.0002479 0.0081807 2.02799553e-06
727	22319447 988 408752 437778 0.562135078571 0.593135090289 32 1500 1500 48000 72000000
728	22320435 988 408752 437778 0.562135078571 0.593135090289 32 1522 1522 48704 74127488
729	22321423 1052 408752 437778 0.562135078571 0.593135090289 32 400286 447468 13564064 5755814124480
730	22322475 988 408756 437782 0.562135078571 0.593135090289 32 1522 1522 48704 74127488
731	22323463 892 408756 437782 0.562135078571 0.593135090289 32 0 0 0 0
732	22324355 1784 408756 437783 0.562135078571 0.593135090289 64 0 1 32 32
733	22326139 1880 408756 437783 0.562135078571 0.593135090289 64 0 1522 48704 74127488
734	22328019 892 408756 437782 0.562135078571 0.593135090289 32 1 1 32 32
0	22328911 26 438175 438175 0.593175971441 0.593175971441 1 0 0 0 0
1	22328937 26 438175 438175 0.593276722289 0.593276722289 1 0 0 0 0
2	22328963 26 438175 438175 0.593188837441 0.593188837441 1 0 0 0 0
3	22328989 23 438175 438175 0.000973862 0.000973862 1 0 0 0 0
4	22329012 26 438175 438175 0.593273136289 0.593273136289 1 0 0 0 0
5	22329038 26 438175 438175 0.593323814126 0.593323814126 1 0 0 0 0
6	22329064 23 438175 438175 0.000476826 0.000476826 1 0 0 0 0
8	22329087 23 438175 438175 0.000974488 0.000974488 1 0 0 0 0
9	22329110 23 438175 438175 0.000396244 0.000396244 1 0 0 0 0
11	22329133 27 438175 438175 0.593257844314 0.593257844314 1 0 0 0 0
12	22329160 27 438175 438175 0.593294605564 0.593294605564 1 0 0 0 0
13	22329187 23 438175 438175 0.59321488 0.59321488 1 0 0 0 0
14	22329210 23 438175 438175 0.59317608 0.59317608 1 0 0 0 0

