version 2
run OpenFlow_static_TDMA-0-20220512-16:25:23-3254
attr configname OpenFlow_static_TDMA
attr datetime 20220512-16:25:23
attr experiment OpenFlow_static_TDMA
attr inifile omnetpp.ini
attr iterationvars ""
attr iterationvarsf ""
attr measurement ""
attr network medium_network
attr processid 3254
attr repetition 0
attr replication #0
attr resultdir results
attr runnumber 0
attr seedset 0
param **.switch2.etherMAC[2].shaper.gateControlList.controlList "\"o,o,o,o,o,o,o,C:0;C,C,C,C,C,C,C,C:0.000013;C,C,C,C,C,C,C,o:0.000134;o,o,o,o,o,o,o,C:0.000401\""
param **.switch2.relayUnit.configXML "xmldoc(\"flow_table_switch2.xml\")"
param **.switch1.etherMAC[0].shaper.gateControlList.controlList "\"o,o,o,o,o,o,o,C:0;C,C,C,C,C,C,C,C:0.000013;C,C,C,C,C,C,C,o:0.000134;o,o,o,o,o,o,o,C:0.000273\""
param **.switch1.relayUnit.configXML "xmldoc(\"flow_table_switch1.xml\")"
param **.controller.controllerApps[0].staticPriorities "\"7\""
param **.scheduler.tick 80ns
param **.scheduler.numPeriods 1
param **.scheduler.period[0].cycle_ticks sec_to_tick(1ms)
param **.scheduler.oscillator.max_drift 200ppm
param **.scheduler.oscillator.drift_change uniform(-50ppm,50ppm)
param **.precission 500ns
param **.pcpSRClassA 7
param **.pcpSRClassB 6
param **.gateControlList.period "\"period[0]\""
param **.source1.phy[*].mac.address "\"0A-00-00-00-00-01\""
param **.source1.phy[*].taggedVIDs "\"0,1,2\""
param **.source1.phy[*].shaper.gateControlList.controlList "\"o,o,o,o,o,o,o,C:0;C,C,C,C,C,C,C,C:0.000010;C,C,C,C,C,C,C,o:0.000134;o,o,o,o,o,o,o,C:0.000261;\""
param **.source1.numApps 2
param **.source1.app[0].typename "\"IEEE8021QSyncTrafficSourceApp\""
param **.source1.app[0].destAddress "\"0A-00-00-00-00-04\""
param **.source1.app[0].payload 1500Byte
param **.source1.app[0].priority 7
param **.source1.app[0].vid 1
param **.source1.app[0].startTime 300ms
param **.source1.app[0].actionTime 135us
param **.source1.app[1].typename "\"IEEE8021QTrafficSourceApp\""
param **.source1.app[1].destAddress "\"0A-00-00-00-00-04\""
param **.source1.app[1].payload "intWithUnit(uniform(0Byte, 1500Byte))"
param **.source1.app[1].priority 0
param **.source1.app[1].sendInterval intWithUnit(uniform(300us,700us))
param **.source2.phy[*].mac.address "\"0A-00-00-00-00-02\""
param **.source2.phy[*].taggedVIDs "\"0,1,2\""
param **.source2.phy[*].shaper.gateControlList.controlList "\"C,C,C,C,C,C,C,C:0;C,C,C,C,C,C,C,o:0.000009;o,o,o,o,o,o,o,C:0.000136;C,C,C,C,C,C,C,C:0.000885\""
param **.source2.numApps 2
param **.source2.app[0].typename "\"IEEE8021QSyncTrafficSourceApp\""
param **.source2.app[0].destAddress "\"0A-00-00-00-00-04\""
param **.source2.app[0].payload 1500Byte
param **.source2.app[0].priority 7
param **.source2.app[0].vid 1
param **.source2.app[0].startTime 100ms
param **.source2.app[0].actionTime 10us
param **.source2.app[1].typename "\"IEEE8021QTrafficSourceApp\""
param **.source2.app[1].destAddress "\"0A-00-00-00-00-04\""
param **.source2.app[1].payload "intWithUnit(uniform(0Byte, 1500Byte))"
param **.source2.app[1].priority 0
param **.source2.app[1].sendInterval intWithUnit(uniform(300us,700us))
param **.source3.phy[*].mac.address "\"0A-00-00-00-00-03\""
param **.source3.phy[*].taggedVIDs "\"0,1,2\""
param **.source3.phy[*].shaper.gateControlList.controlList "\"C,C,C,C,C,C,C,C:0;C,C,C,C,C,C,C,o:0.000009;o,o,o,o,o,o,o,C:0.000136;C,C,C,C,C,C,C,C:0.000885\""
param **.source3.numApps 2
param **.source3.app[0].typename "\"IEEE8021QSyncTrafficSourceApp\""
param **.source3.app[0].destAddress "\"0A-00-00-00-00-04\""
param **.source3.app[0].payload 1500Byte
param **.source3.app[0].priority 7
param **.source3.app[0].vid 1
param **.source3.app[0].startTime 200ms
param **.source3.app[0].actionTime 10us
param **.source3.app[1].typename "\"IEEE8021QTrafficSourceApp\""
param **.source3.app[1].destAddress "\"0A-00-00-00-00-04\""
param **.source3.app[1].payload "intWithUnit(uniform(0Byte, 1500Byte))"
param **.source3.app[1].priority 0
param **.source3.app[1].sendInterval intWithUnit(uniform(300us,700us))
param **.sink.phy[*].mac.address "\"0A-00-00-00-00-04\""
param **.sink.phy[*].taggedVIDs "\"0,1,2\""
param **.sink.phy[*].shaper.gateControlList.controlList "\"o,o,o,o,o,o,o,o:0\""
param **.sink.numApps 3
param **.sink.app[*].typename "\"IEEE8021QTrafficSinkApp\""
param **.sink.app[0].srcAddress "\"0A-00-00-00-00-02\""
param **.sink.app[1].srcAddress "\"0A-00-00-00-00-03\""
param **.sink.app[2].srcAddress "\"0A-00-00-00-00-01\""
param **.sink.app[*].replyFirst false
param **.sink.app[*].reply false
param **.sink.bgIn.destination_gates "\"app[0].in, app[1].in, app[2].in\""
param **.switch2.eth[*].mac.address "\"0A-00-00-00-00-C2\""
param **.switch2.etherMAC[0].untaggedVID 0
param **.switch2.etherMAC[0].taggedVIDs "\"0,1,2\""
param **.switch2.etherMAC[1].untaggedVID 0
param **.switch2.etherMAC[1].taggedVIDs "\"0,1,2\""
param **.switch2.etherMAC[2].untaggedVID 0
param **.switch2.etherMAC[2].taggedVIDs "\"0,1,2\""
param **.switch2.networkLayer.ip.filters "xmldoc(\"rtIpConfig.xml\", \"/rtIpConfig/node[@id='switch2']\")"
param **.switch2.switchAgent.connectAddress "\"controller\""
param **.switch2.switchAgent.connectAt 0s
param **.switch1.nc_service_time 2ms
param **.switch2.switchAgent.bufferCapacity 3712
param **.switch2.of_service_time 100us
param **.switch2.hardware_delay 3us
param **.switch2.etherMAC[*].shaper.gateControlList.controlList "\"o,o,o,o,o,o,o,o:0\""
param **.switch1.eth[*].mac.address "\"0A-00-00-00-00-C1\""
param **.switch1.etherMAC[0].untaggedVID 0
param **.switch1.etherMAC[0].taggedVIDs "\"0,1,2\""
param **.switch1.etherMAC[1].untaggedVID 0
param **.switch1.etherMAC[1].taggedVIDs "\"0,1,2\""
param **.switch1.etherMAC[2].untaggedVID 0
param **.switch1.etherMAC[2].taggedVIDs "\"0,1,2\""
param **.switch1.networkLayer.ip.filters "xmldoc(\"rtIpConfig.xml\", \"/rtIpConfig/node[@id='switch1']\")"
param **.switch1.switchAgent.connectAddress "\"controller\""
param **.switch1.switchAgent.connectAt 0s
param **.switch1.nc_service_time 2ms
param **.switch1.switchAgent.bufferCapacity 3712
param **.switch1.of_service_time 100us
param **.switch1.hardware_delay 3us
param **.switch1.etherMAC[*].shaper.gateControlList.controlList "\"o,o,o,o,o,o,o,o:0\""
param **.controller.eth[*].mac.address "\"0A-00-00-00-00-C0\""
param **.controller.networkLayer.ip.filters "xmldoc(\"rtIpConfig.xml\", \"/rtIpConfig/node[@id='controller']\")"
param **.controller.serviceTime 500ns
param **.controller.numControllerApps 1
param **.controller.controllerApps[0].typename "\"TSNLearningControllerApp\""
param **.controller.controllerApps[0].configXML "xmldoc(\"controllerconfig.xml\")"

scalar medium_network.controller.ethg$o[0].channel packetsDiscarded:count 0
attr interpolationmode none
attr source constant1(messageDiscarded)
scalar medium_network.controller.ethg$o[0].channel utilization:last 0.020923018796346
attr source timeavg(channelBusy)
scalar medium_network.controller.ethg$o[0].channel packets:count 4767
attr interpolationmode none
attr source constant1(messageSent)
scalar medium_network.controller.ethg$o[0].channel packetBytes:sum 1551379
attr interpolationmode none
attr source packetBytes(messageSent)
attr unit B
scalar medium_network.controller.ethg$o[0].channel throughput:last 20923171.176252
attr source sumPerDuration(packetBits(messageSent))
attr unit bps
scalar medium_network.ethswitch.ethg$o[0].channel packetsDiscarded:count 0
attr interpolationmode none
attr source constant1(messageDiscarded)
scalar medium_network.ethswitch.ethg$o[0].channel utilization:last 0.020859540809646
attr source timeavg(channelBusy)
scalar medium_network.ethswitch.ethg$o[0].channel packets:count 4768
attr interpolationmode none
attr source constant1(messageSent)
scalar medium_network.ethswitch.ethg$o[0].channel packetBytes:sum 1546935
attr interpolationmode none
attr source packetBytes(messageSent)
attr unit B
scalar medium_network.ethswitch.ethg$o[0].channel throughput:last 20859710.141022
attr source sumPerDuration(packetBits(messageSent))
attr unit bps
scalar medium_network.ethswitch.ethg$o[1].channel packetsDiscarded:count 0
attr interpolationmode none
attr source constant1(messageDiscarded)
scalar medium_network.ethswitch.ethg$o[1].channel utilization:last 0.020852233250648
attr source timeavg(channelBusy)
scalar medium_network.ethswitch.ethg$o[1].channel packets:count 4743
attr interpolationmode none
attr source constant1(messageSent)
scalar medium_network.ethswitch.ethg$o[1].channel packetBytes:sum 1546164
attr interpolationmode none
attr source packetBytes(messageSent)
attr unit B
scalar medium_network.ethswitch.ethg$o[1].channel throughput:last 20852385.111738
attr source sumPerDuration(packetBits(messageSent))
attr unit bps
scalar medium_network.ethswitch.ethg$o[2].channel packetsDiscarded:count 0
attr interpolationmode none
attr source constant1(messageDiscarded)
scalar medium_network.ethswitch.ethg$o[2].channel utilization:last 0.044022664402143
attr source timeavg(channelBusy)
scalar medium_network.ethswitch.ethg$o[2].channel packets:count 26
attr interpolationmode none
attr source constant1(messageSent)
scalar medium_network.ethswitch.ethg$o[2].channel packetBytes:sum 5359
attr interpolationmode none
attr source packetBytes(messageSent)
attr unit B
scalar medium_network.ethswitch.ethg$o[2].channel throughput:last 44221006.00932
attr source sumPerDuration(packetBits(messageSent))
attr unit bps
scalar medium_network.switch1.gateControlPlane$o.channel packetsDiscarded:count 0
attr interpolationmode none
attr source constant1(messageDiscarded)
scalar medium_network.switch1.gateControlPlane$o.channel utilization:last 0.020806254733212
attr source timeavg(channelBusy)
scalar medium_network.switch1.gateControlPlane$o.channel packets:count 4745
attr interpolationmode none
attr source constant1(messageSent)
scalar medium_network.switch1.gateControlPlane$o.channel packetBytes:sum 1542974
attr interpolationmode none
attr source packetBytes(messageSent)
attr unit B
scalar medium_network.switch1.gateControlPlane$o.channel throughput:last 20806404.554524
attr source sumPerDuration(packetBits(messageSent))
attr unit bps
scalar medium_network.switch1.gateDataPlane$o[0].channel packetsDiscarded:count 0
attr interpolationmode none
attr source constant1(messageDiscarded)
scalar medium_network.switch1.gateDataPlane$o[0].channel utilization:last 0.27189092390912
attr source timeavg(channelBusy)
scalar medium_network.switch1.gateDataPlane$o[0].channel packets:count 2645
attr interpolationmode none
attr source constant1(messageSent)
scalar medium_network.switch1.gateDataPlane$o[0].channel packetBytes:sum 2016492
attr interpolationmode none
attr source packetBytes(messageSent)
attr unit B
scalar medium_network.switch1.gateDataPlane$o[0].channel throughput:last 27191424.169325
attr source sumPerDuration(packetBits(messageSent))
attr unit bps
scalar medium_network.switch1.gateDataPlane$o[1].channel packetsDiscarded:count 0
attr interpolationmode none
attr source constant1(messageDiscarded)
scalar medium_network.switch1.gateDataPlane$o[1].channel utilization:last 0.18522479898328
attr source timeavg(channelBusy)
scalar medium_network.switch1.gateDataPlane$o[1].channel packets:count 1
attr interpolationmode none
attr source constant1(messageSent)
scalar medium_network.switch1.gateDataPlane$o[1].channel packetBytes:sum 1104
attr interpolationmode none
attr source packetBytes(messageSent)
attr unit B
scalar medium_network.switch1.gateDataPlane$o[1].channel throughput:last 22733239.641087
attr source sumPerDuration(packetBits(messageSent))
attr unit bps
scalar medium_network.switch1.gateDataPlane$o[2].channel packetsDiscarded:count 0
attr interpolationmode none
attr source constant1(messageDiscarded)
scalar medium_network.switch1.gateDataPlane$o[2].channel utilization:last nan
attr source timeavg(channelBusy)
scalar medium_network.switch1.gateDataPlane$o[2].channel packets:count 0
attr interpolationmode none
attr source constant1(messageSent)
scalar medium_network.switch1.gateDataPlane$o[2].channel packetBytes:sum 0
attr interpolationmode none
attr source packetBytes(messageSent)
attr unit B
scalar medium_network.switch1.gateDataPlane$o[2].channel throughput:last nan
attr source sumPerDuration(packetBits(messageSent))
attr unit bps
scalar medium_network.switch2.gateControlPlane$o.channel packetsDiscarded:count 0
attr interpolationmode none
attr source constant1(messageDiscarded)
scalar medium_network.switch2.gateControlPlane$o.channel utilization:last 0.041843511669718
attr source timeavg(channelBusy)
scalar medium_network.switch2.gateControlPlane$o.channel packets:count 25
attr interpolationmode none
attr source constant1(messageSent)
scalar medium_network.switch2.gateControlPlane$o.channel packetBytes:sum 5097
attr interpolationmode none
attr source packetBytes(messageSent)
attr unit B
scalar medium_network.switch2.gateControlPlane$o.channel throughput:last 41868259.144563
attr source sumPerDuration(packetBits(messageSent))
attr unit bps
scalar medium_network.switch2.gateDataPlane$o[0].channel packetsDiscarded:count 0
attr interpolationmode none
attr source constant1(messageDiscarded)
scalar medium_network.switch2.gateDataPlane$o[0].channel utilization:last 0.093679651931638
attr source timeavg(channelBusy)
scalar medium_network.switch2.gateDataPlane$o[0].channel packets:count 1
attr interpolationmode none
attr source constant1(messageSent)
scalar medium_network.switch2.gateDataPlane$o[0].channel packetBytes:sum 464
attr interpolationmode none
attr source packetBytes(messageSent)
attr unit B
scalar medium_network.switch2.gateDataPlane$o[0].channel throughput:last 10336262.683641
attr source sumPerDuration(packetBits(messageSent))
attr unit bps
scalar medium_network.switch2.gateDataPlane$o[1].channel packetsDiscarded:count 0
attr interpolationmode none
attr source constant1(messageDiscarded)
scalar medium_network.switch2.gateDataPlane$o[1].channel utilization:last nan
attr source timeavg(channelBusy)
scalar medium_network.switch2.gateDataPlane$o[1].channel packets:count 0
attr interpolationmode none
attr source constant1(messageSent)
scalar medium_network.switch2.gateDataPlane$o[1].channel packetBytes:sum 0
attr interpolationmode none
attr source packetBytes(messageSent)
attr unit B
scalar medium_network.switch2.gateDataPlane$o[1].channel throughput:last nan
attr source sumPerDuration(packetBits(messageSent))
attr unit bps
scalar medium_network.switch2.gateDataPlane$o[2].channel packetsDiscarded:count 0
attr interpolationmode none
attr source constant1(messageDiscarded)
scalar medium_network.switch2.gateDataPlane$o[2].channel utilization:last 0.46410322701822
attr source timeavg(channelBusy)
scalar medium_network.switch2.gateDataPlane$o[2].channel packets:count 4086
attr interpolationmode none
attr source constant1(messageSent)
scalar medium_network.switch2.gateDataPlane$o[2].channel packetBytes:sum 3441661
attr interpolationmode none
attr source packetBytes(messageSent)
attr unit B
scalar medium_network.switch2.gateDataPlane$o[2].channel throughput:last 46419899.980592
attr source sumPerDuration(packetBits(messageSent))
attr unit bps
scalar medium_network.source1.ethg$o.channel packetsDiscarded:count 0
attr interpolationmode none
attr source constant1(messageDiscarded)
scalar medium_network.source1.ethg$o.channel utilization:last 0.24154097923033
attr source timeavg(channelBusy)
scalar medium_network.source1.ethg$o.channel packets:count 2055
attr interpolationmode none
attr source constant1(messageSent)
scalar medium_network.source1.ethg$o.channel packetBytes:sum 1791312
attr interpolationmode none
attr source packetBytes(messageSent)
attr unit B
scalar medium_network.source1.ethg$o.channel throughput:last 24155462.660047
attr source sumPerDuration(packetBits(messageSent))
attr unit bps
scalar medium_network.source2.ethg$o.channel packetsDiscarded:count 0
attr interpolationmode none
attr source constant1(messageDiscarded)
scalar medium_network.source2.ethg$o.channel utilization:last 0.19298261702404
attr source timeavg(channelBusy)
scalar medium_network.source2.ethg$o.channel packets:count 1379
attr interpolationmode none
attr source constant1(messageSent)
scalar medium_network.source2.ethg$o.channel packetBytes:sum 1431002
attr interpolationmode none
attr source packetBytes(messageSent)
attr unit B
scalar medium_network.source2.ethg$o.channel throughput:last 19299917.05498
attr source sumPerDuration(packetBits(messageSent))
attr unit bps
scalar medium_network.source3.ethg$o.channel packetsDiscarded:count 0
attr interpolationmode none
attr source constant1(messageDiscarded)
scalar medium_network.source3.ethg$o.channel utilization:last 0.1923079568549
attr source timeavg(channelBusy)
scalar medium_network.source3.ethg$o.channel packets:count 1443
attr interpolationmode none
attr source constant1(messageSent)
scalar medium_network.source3.ethg$o.channel packetBytes:sum 1425906
attr interpolationmode none
attr source packetBytes(messageSent)
attr unit B
scalar medium_network.source3.ethg$o.channel throughput:last 19231057.643029
attr source sumPerDuration(packetBits(messageSent))
attr unit bps
scalar medium_network.sink.ethg$o.channel packetsDiscarded:count 0
attr interpolationmode none
attr source constant1(messageDiscarded)
scalar medium_network.sink.ethg$o.channel utilization:last nan
attr source timeavg(channelBusy)
scalar medium_network.sink.ethg$o.channel packets:count 0
attr interpolationmode none
attr source constant1(messageSent)
scalar medium_network.sink.ethg$o.channel packetBytes:sum 0
attr interpolationmode none
attr source packetBytes(messageSent)
attr unit B
scalar medium_network.sink.ethg$o.channel throughput:last nan
attr source sumPerDuration(packetBits(messageSent))
attr unit bps
scalar medium_network.controller.networkLayer.arp failedARPResolution:count 0
attr title "ARP failed resolutions, count"
scalar medium_network.controller.networkLayer.arp completedARPResolution:count 2
attr title "ARP completed resolutions, count"
scalar medium_network.controller.networkLayer.arp initiatedARPResolution:count 0
attr title "ARP initiated resolutions, count"
scalar medium_network.controller.networkLayer.arp sentReply:count 2
attr title "ARP replies sent, count"
scalar medium_network.controller.networkLayer.arp sentReq:count 0
attr title "ARP request sent, count"
scalar medium_network.controller.lo0.lo droppedPkBitError:count 0
attr interpolationmode none
attr source dropPkBitError
attr title "packets dropped/bit error, count"
scalar medium_network.controller.lo0.lo droppedPkBitError:sum(packetBytes) 0
attr interpolationmode none
attr source dropPkBitError
attr title "packets dropped/bit error, sum(packetBytes)"
scalar medium_network.controller.lo0.lo rcvdPkFromHL:count 0
attr interpolationmode none
attr source packetReceivedFromUpper
attr title "packets received from higher layer, count"
scalar medium_network.controller.lo0.lo rcvdPkFromHL:sum(packetBytes) 0
attr interpolationmode none
attr source packetReceivedFromUpper
attr title "packets received from higher layer, sum(packetBytes)"
scalar medium_network.controller.lo0.lo passedUpPk:count 0
attr interpolationmode none
attr source packetSentToUpper
attr title "packets passed to higher layer, count"
scalar medium_network.controller.lo0.lo passedUpPk:sum(packetBytes) 0
attr interpolationmode none
attr source packetSentToUpper
attr title "packets passed to higher layer, sum(packetBytes)"
scalar medium_network.controller.eth[0].shaper.queue[0] dropped:count 0
attr source dropped
attr title "Dropped frames, count"
attr unit packets
scalar medium_network.controller.eth[0].shaper.queue[0] rxPk:count 4767
attr source rxPk
attr title "Received Packets, count"
attr unit packets
scalar medium_network.controller.eth[0].shaper.queue[0] rxBytes:sum(packetBytes) 1513243
attr interpolationmode none
attr source rxPk
attr title "Received Bytes, sum(packetBytes)"
attr unit B
statistic medium_network.controller.eth[0].shaper.queue[0] rxBytes:histogram(packetBytes)
field count 4767
field mean 317.44136773652
field stddev 255.39067082922
field min 64
field max 594
field sum 1513243
field sqrsum 791225393
attr interpolationmode none
attr source rxPk
attr title "Received Bytes, histogram(packetBytes)"
attr unit B
bin	-inf	0
bin	0	0
bin	10	0
bin	20	0
bin	30	0
bin	40	0
bin	50	0
bin	60	2387
bin	70	0
bin	80	0
bin	90	0
bin	100	2
bin	110	5
bin	120	0
bin	130	0
bin	140	1
bin	150	0
bin	160	0
bin	170	0
bin	180	0
bin	190	0
bin	200	0
bin	210	0
bin	220	0
bin	230	0
bin	240	0
bin	250	0
bin	260	0
bin	270	0
bin	280	0
bin	290	0
bin	300	0
bin	310	0
bin	320	0
bin	330	0
bin	340	0
bin	350	0
bin	360	0
bin	370	2
bin	380	0
bin	390	0
bin	400	0
bin	410	0
bin	420	0
bin	430	0
bin	440	0
bin	450	0
bin	460	0
bin	470	0
bin	480	0
bin	490	0
bin	500	1
bin	510	0
bin	520	0
bin	530	789
bin	540	0
bin	550	0
bin	560	0
bin	570	0
bin	580	0
bin	590	1580
bin	600	0
bin	610	0
bin	620	0
bin	630	0
bin	640	0
bin	650	0
bin	660	0
bin	670	0
bin	680	0
bin	690	0
bin	700	0
bin	710	0
bin	720	0
bin	730	0
statistic medium_network.controller.eth[0].shaper.queue[0] rxLatency:stats
field count 4767
field mean 0
field stddev 0
field min 0
field max 0
field sum 0
field sqrsum 0
attr interpolationmode none
attr source messageAge(rxPk)
attr title "End-to-end latency (received), stats"
attr unit s
statistic medium_network.controller.eth[0].shaper.queue[0] rxLatency:histogram
field count 4767
field mean 0
field stddev 0
field min 0
field max 0
field sum 0
field sqrsum 0
attr interpolationmode none
attr source messageAge(rxPk)
attr title "End-to-end latency (received), histogram"
attr unit s
bin	-inf	0
bin	-0.5	0
bin	-0.48	0
bin	-0.46	0
bin	-0.44	0
bin	-0.42	0
bin	-0.4	0
bin	-0.38	0
bin	-0.36	0
bin	-0.34	0
bin	-0.32	0
bin	-0.3	0
bin	-0.28	0
bin	-0.26	0
bin	-0.24	0
bin	-0.22	0
bin	-0.2	0
bin	-0.18	0
bin	-0.16	0
bin	-0.14	0
bin	-0.12	0
bin	-0.1	0
bin	-0.08	0
bin	-0.06	0
bin	-0.04	0
bin	-0.02	0
bin	0	4767
bin	0.02	0
bin	0.04	0
bin	0.06	0
bin	0.08	0
bin	0.1	0
bin	0.12	0
bin	0.14	0
bin	0.16	0
bin	0.18	0
bin	0.2	0
bin	0.22	0
bin	0.24	0
bin	0.26	0
bin	0.28	0
bin	0.3	0
bin	0.32	0
bin	0.34	0
bin	0.36	0
bin	0.38	0
bin	0.4	0
bin	0.42	0
bin	0.44	0
bin	0.46	0
bin	0.48	0
bin	0.5	0
scalar medium_network.controller.eth[0].shaper.queue[0] txPk:count 0
attr source txPk
attr title "Transmitted Packets, count"
attr unit packets
scalar medium_network.controller.eth[0].shaper.queue[0] txBytes:sum(packetBytes) 0
attr interpolationmode none
attr source txPk
attr title "Transmitted Bytes, sum(packetBytes)"
attr unit B
statistic medium_network.controller.eth[0].shaper.queue[0] txBytes:histogram(packetBytes)
field count 0
field mean -nan
field stddev -nan
field min -nan
field max -nan
field sum 0
field sqrsum 0
attr interpolationmode none
attr source txPk
attr title "Transmitted Bytes, histogram(packetBytes)"
attr unit B
bin	-inf	0
bin	0	0
bin	1	0
statistic medium_network.controller.eth[0].shaper.queue[0] txLatency:stats
field count 0
field mean -nan
field stddev -nan
field min -nan
field max -nan
field sum 0
field sqrsum 0
attr interpolationmode none
attr source messageAge(txPk)
attr title "End-to-end latency (transmitted), stats"
attr unit s
statistic medium_network.controller.eth[0].shaper.queue[0] txLatency:histogram
field count 0
field mean -nan
field stddev -nan
field min -nan
field max -nan
field sum 0
field sqrsum 0
attr interpolationmode none
attr source messageAge(txPk)
attr title "End-to-end latency (transmitted), histogram"
attr unit s
bin	-inf	0
bin	0	0
bin	1	0
scalar medium_network.controller.eth[0].shaper.queue[1] dropped:count 0
attr source dropped
attr title "Dropped frames, count"
attr unit packets
scalar medium_network.controller.eth[0].shaper.queue[1] rxPk:count 0
attr source rxPk
attr title "Received Packets, count"
attr unit packets
scalar medium_network.controller.eth[0].shaper.queue[1] rxBytes:sum(packetBytes) 0
attr interpolationmode none
attr source rxPk
attr title "Received Bytes, sum(packetBytes)"
attr unit B
statistic medium_network.controller.eth[0].shaper.queue[1] rxBytes:histogram(packetBytes)
field count 0
field mean -nan
field stddev -nan
field min -nan
field max -nan
field sum 0
field sqrsum 0
attr interpolationmode none
attr source rxPk
attr title "Received Bytes, histogram(packetBytes)"
attr unit B
bin	-inf	0
bin	0	0
bin	1	0
statistic medium_network.controller.eth[0].shaper.queue[1] rxLatency:stats
field count 0
field mean -nan
field stddev -nan
field min -nan
field max -nan
field sum 0
field sqrsum 0
attr interpolationmode none
attr source messageAge(rxPk)
attr title "End-to-end latency (received), stats"
attr unit s
statistic medium_network.controller.eth[0].shaper.queue[1] rxLatency:histogram
field count 0
field mean -nan
field stddev -nan
field min -nan
field max -nan
field sum 0
field sqrsum 0
attr interpolationmode none
attr source messageAge(rxPk)
attr title "End-to-end latency (received), histogram"
attr unit s
bin	-inf	0
bin	0	0
bin	1	0
scalar medium_network.controller.eth[0].shaper.queue[1] txPk:count 0
attr source txPk
attr title "Transmitted Packets, count"
attr unit packets
scalar medium_network.controller.eth[0].shaper.queue[1] txBytes:sum(packetBytes) 0
attr interpolationmode none
attr source txPk
attr title "Transmitted Bytes, sum(packetBytes)"
attr unit B
statistic medium_network.controller.eth[0].shaper.queue[1] txBytes:histogram(packetBytes)
field count 0
field mean -nan
field stddev -nan
field min -nan
field max -nan
field sum 0
field sqrsum 0
attr interpolationmode none
attr source txPk
attr title "Transmitted Bytes, histogram(packetBytes)"
attr unit B
bin	-inf	0
bin	0	0
bin	1	0
statistic medium_network.controller.eth[0].shaper.queue[1] txLatency:stats
field count 0
field mean -nan
field stddev -nan
field min -nan
field max -nan
field sum 0
field sqrsum 0
attr interpolationmode none
attr source messageAge(txPk)
attr title "End-to-end latency (transmitted), stats"
attr unit s
statistic medium_network.controller.eth[0].shaper.queue[1] txLatency:histogram
field count 0
field mean -nan
field stddev -nan
field min -nan
field max -nan
field sum 0
field sqrsum 0
attr interpolationmode none
attr source messageAge(txPk)
attr title "End-to-end latency (transmitted), histogram"
attr unit s
bin	-inf	0
bin	0	0
bin	1	0
scalar medium_network.controller.eth[0].shaper.queue[2] dropped:count 0
attr source dropped
attr title "Dropped frames, count"
attr unit packets
scalar medium_network.controller.eth[0].shaper.queue[2] rxPk:count 0
attr source rxPk
attr title "Received Packets, count"
attr unit packets
scalar medium_network.controller.eth[0].shaper.queue[2] rxBytes:sum(packetBytes) 0
attr interpolationmode none
attr source rxPk
attr title "Received Bytes, sum(packetBytes)"
attr unit B
statistic medium_network.controller.eth[0].shaper.queue[2] rxBytes:histogram(packetBytes)
field count 0
field mean -nan
field stddev -nan
field min -nan
field max -nan
field sum 0
field sqrsum 0
attr interpolationmode none
attr source rxPk
attr title "Received Bytes, histogram(packetBytes)"
attr unit B
bin	-inf	0
bin	0	0
bin	1	0
statistic medium_network.controller.eth[0].shaper.queue[2] rxLatency:stats
field count 0
field mean -nan
field stddev -nan
field min -nan
field max -nan
field sum 0
field sqrsum 0
attr interpolationmode none
attr source messageAge(rxPk)
attr title "End-to-end latency (received), stats"
attr unit s
statistic medium_network.controller.eth[0].shaper.queue[2] rxLatency:histogram
field count 0
field mean -nan
field stddev -nan
field min -nan
field max -nan
field sum 0
field sqrsum 0
attr interpolationmode none
attr source messageAge(rxPk)
attr title "End-to-end latency (received), histogram"
attr unit s
bin	-inf	0
bin	0	0
bin	1	0
scalar medium_network.controller.eth[0].shaper.queue[2] txPk:count 0
attr source txPk
attr title "Transmitted Packets, count"
attr unit packets
scalar medium_network.controller.eth[0].shaper.queue[2] txBytes:sum(packetBytes) 0
attr interpolationmode none
attr source txPk
attr title "Transmitted Bytes, sum(packetBytes)"
attr unit B
statistic medium_network.controller.eth[0].shaper.queue[2] txBytes:histogram(packetBytes)
field count 0
field mean -nan
field stddev -nan
field min -nan
field max -nan
field sum 0
field sqrsum 0
attr interpolationmode none
attr source txPk
attr title "Transmitted Bytes, histogram(packetBytes)"
attr unit B
bin	-inf	0
bin	0	0
bin	1	0
statistic medium_network.controller.eth[0].shaper.queue[2] txLatency:stats
field count 0
field mean -nan
field stddev -nan
field min -nan
field max -nan
field sum 0
field sqrsum 0
attr interpolationmode none
attr source messageAge(txPk)
attr title "End-to-end latency (transmitted), stats"
attr unit s
statistic medium_network.controller.eth[0].shaper.queue[2] txLatency:histogram
field count 0
field mean -nan
field stddev -nan
field min -nan
field max -nan
field sum 0
field sqrsum 0
attr interpolationmode none
attr source messageAge(txPk)
attr title "End-to-end latency (transmitted), histogram"
attr unit s
bin	-inf	0
bin	0	0
bin	1	0
scalar medium_network.controller.eth[0].shaper.queue[3] dropped:count 0
attr source dropped
attr title "Dropped frames, count"
attr unit packets
scalar medium_network.controller.eth[0].shaper.queue[3] rxPk:count 0
attr source rxPk
attr title "Received Packets, count"
attr unit packets
scalar medium_network.controller.eth[0].shaper.queue[3] rxBytes:sum(packetBytes) 0
attr interpolationmode none
attr source rxPk
attr title "Received Bytes, sum(packetBytes)"
attr unit B
statistic medium_network.controller.eth[0].shaper.queue[3] rxBytes:histogram(packetBytes)
field count 0
field mean -nan
field stddev -nan
field min -nan
field max -nan
field sum 0
field sqrsum 0
attr interpolationmode none
attr source rxPk
attr title "Received Bytes, histogram(packetBytes)"
attr unit B
bin	-inf	0
bin	0	0
bin	1	0
statistic medium_network.controller.eth[0].shaper.queue[3] rxLatency:stats
field count 0
field mean -nan
field stddev -nan
field min -nan
field max -nan
field sum 0
field sqrsum 0
attr interpolationmode none
attr source messageAge(rxPk)
attr title "End-to-end latency (received), stats"
attr unit s
statistic medium_network.controller.eth[0].shaper.queue[3] rxLatency:histogram
field count 0
field mean -nan
field stddev -nan
field min -nan
field max -nan
field sum 0
field sqrsum 0
attr interpolationmode none
attr source messageAge(rxPk)
attr title "End-to-end latency (received), histogram"
attr unit s
bin	-inf	0
bin	0	0
bin	1	0
scalar medium_network.controller.eth[0].shaper.queue[3] txPk:count 0
attr source txPk
attr title "Transmitted Packets, count"
attr unit packets
scalar medium_network.controller.eth[0].shaper.queue[3] txBytes:sum(packetBytes) 0
attr interpolationmode none
attr source txPk
attr title "Transmitted Bytes, sum(packetBytes)"
attr unit B
statistic medium_network.controller.eth[0].shaper.queue[3] txBytes:histogram(packetBytes)
field count 0
field mean -nan
field stddev -nan
field min -nan
field max -nan
field sum 0
field sqrsum 0
attr interpolationmode none
attr source txPk
attr title "Transmitted Bytes, histogram(packetBytes)"
attr unit B
bin	-inf	0
bin	0	0
bin	1	0
statistic medium_network.controller.eth[0].shaper.queue[3] txLatency:stats
field count 0
field mean -nan
field stddev -nan
field min -nan
field max -nan
field sum 0
field sqrsum 0
attr interpolationmode none
attr source messageAge(txPk)
attr title "End-to-end latency (transmitted), stats"
attr unit s
statistic medium_network.controller.eth[0].shaper.queue[3] txLatency:histogram
field count 0
field mean -nan
field stddev -nan
field min -nan
field max -nan
field sum 0
field sqrsum 0
attr interpolationmode none
attr source messageAge(txPk)
attr title "End-to-end latency (transmitted), histogram"
attr unit s
bin	-inf	0
bin	0	0
bin	1	0
scalar medium_network.controller.eth[0].shaper.queue[4] dropped:count 0
attr source dropped
attr title "Dropped frames, count"
attr unit packets
scalar medium_network.controller.eth[0].shaper.queue[4] rxPk:count 0
attr source rxPk
attr title "Received Packets, count"
attr unit packets
scalar medium_network.controller.eth[0].shaper.queue[4] rxBytes:sum(packetBytes) 0
attr interpolationmode none
attr source rxPk
attr title "Received Bytes, sum(packetBytes)"
attr unit B
statistic medium_network.controller.eth[0].shaper.queue[4] rxBytes:histogram(packetBytes)
field count 0
field mean -nan
field stddev -nan
field min -nan
field max -nan
field sum 0
field sqrsum 0
attr interpolationmode none
attr source rxPk
attr title "Received Bytes, histogram(packetBytes)"
attr unit B
bin	-inf	0
bin	0	0
bin	1	0
statistic medium_network.controller.eth[0].shaper.queue[4] rxLatency:stats
field count 0
field mean -nan
field stddev -nan
field min -nan
field max -nan
field sum 0
field sqrsum 0
attr interpolationmode none
attr source messageAge(rxPk)
attr title "End-to-end latency (received), stats"
attr unit s
statistic medium_network.controller.eth[0].shaper.queue[4] rxLatency:histogram
field count 0
field mean -nan
field stddev -nan
field min -nan
field max -nan
field sum 0
field sqrsum 0
attr interpolationmode none
attr source messageAge(rxPk)
attr title "End-to-end latency (received), histogram"
attr unit s
bin	-inf	0
bin	0	0
bin	1	0
scalar medium_network.controller.eth[0].shaper.queue[4] txPk:count 0
attr source txPk
attr title "Transmitted Packets, count"
attr unit packets
scalar medium_network.controller.eth[0].shaper.queue[4] txBytes:sum(packetBytes) 0
attr interpolationmode none
attr source txPk
attr title "Transmitted Bytes, sum(packetBytes)"
attr unit B
statistic medium_network.controller.eth[0].shaper.queue[4] txBytes:histogram(packetBytes)
field count 0
field mean -nan
field stddev -nan
field min -nan
field max -nan
field sum 0
field sqrsum 0
attr interpolationmode none
attr source txPk
attr title "Transmitted Bytes, histogram(packetBytes)"
attr unit B
bin	-inf	0
bin	0	0
bin	1	0
statistic medium_network.controller.eth[0].shaper.queue[4] txLatency:stats
field count 0
field mean -nan
field stddev -nan
field min -nan
field max -nan
field sum 0
field sqrsum 0
attr interpolationmode none
attr source messageAge(txPk)
attr title "End-to-end latency (transmitted), stats"
attr unit s
statistic medium_network.controller.eth[0].shaper.queue[4] txLatency:histogram
field count 0
field mean -nan
field stddev -nan
field min -nan
field max -nan
field sum 0
field sqrsum 0
attr interpolationmode none
attr source messageAge(txPk)
attr title "End-to-end latency (transmitted), histogram"
attr unit s
bin	-inf	0
bin	0	0
bin	1	0
scalar medium_network.controller.eth[0].shaper.queue[5] dropped:count 0
attr source dropped
attr title "Dropped frames, count"
attr unit packets
scalar medium_network.controller.eth[0].shaper.queue[5] rxPk:count 0
attr source rxPk
attr title "Received Packets, count"
attr unit packets
scalar medium_network.controller.eth[0].shaper.queue[5] rxBytes:sum(packetBytes) 0
attr interpolationmode none
attr source rxPk
attr title "Received Bytes, sum(packetBytes)"
attr unit B
statistic medium_network.controller.eth[0].shaper.queue[5] rxBytes:histogram(packetBytes)
field count 0
field mean -nan
field stddev -nan
field min -nan
field max -nan
field sum 0
field sqrsum 0
attr interpolationmode none
attr source rxPk
attr title "Received Bytes, histogram(packetBytes)"
attr unit B
bin	-inf	0
bin	0	0
bin	1	0
statistic medium_network.controller.eth[0].shaper.queue[5] rxLatency:stats
field count 0
field mean -nan
field stddev -nan
field min -nan
field max -nan
field sum 0
field sqrsum 0
attr interpolationmode none
attr source messageAge(rxPk)
attr title "End-to-end latency (received), stats"
attr unit s
statistic medium_network.controller.eth[0].shaper.queue[5] rxLatency:histogram
field count 0
field mean -nan
field stddev -nan
field min -nan
field max -nan
field sum 0
field sqrsum 0
attr interpolationmode none
attr source messageAge(rxPk)
attr title "End-to-end latency (received), histogram"
attr unit s
bin	-inf	0
bin	0	0
bin	1	0
scalar medium_network.controller.eth[0].shaper.queue[5] txPk:count 0
attr source txPk
attr title "Transmitted Packets, count"
attr unit packets
scalar medium_network.controller.eth[0].shaper.queue[5] txBytes:sum(packetBytes) 0
attr interpolationmode none
attr source txPk
attr title "Transmitted Bytes, sum(packetBytes)"
attr unit B
statistic medium_network.controller.eth[0].shaper.queue[5] txBytes:histogram(packetBytes)
field count 0
field mean -nan
field stddev -nan
field min -nan
field max -nan
field sum 0
field sqrsum 0
attr interpolationmode none
attr source txPk
attr title "Transmitted Bytes, histogram(packetBytes)"
attr unit B
bin	-inf	0
bin	0	0
bin	1	0
statistic medium_network.controller.eth[0].shaper.queue[5] txLatency:stats
field count 0
field mean -nan
field stddev -nan
field min -nan
field max -nan
field sum 0
field sqrsum 0
attr interpolationmode none
attr source messageAge(txPk)
attr title "End-to-end latency (transmitted), stats"
attr unit s
statistic medium_network.controller.eth[0].shaper.queue[5] txLatency:histogram
field count 0
field mean -nan
field stddev -nan
field min -nan
field max -nan
field sum 0
field sqrsum 0
attr interpolationmode none
attr source messageAge(txPk)
attr title "End-to-end latency (transmitted), histogram"
attr unit s
bin	-inf	0
bin	0	0
bin	1	0
scalar medium_network.controller.eth[0].shaper.queue[6] dropped:count 0
attr source dropped
attr title "Dropped frames, count"
attr unit packets
scalar medium_network.controller.eth[0].shaper.queue[6] rxPk:count 0
attr source rxPk
attr title "Received Packets, count"
attr unit packets
scalar medium_network.controller.eth[0].shaper.queue[6] rxBytes:sum(packetBytes) 0
attr interpolationmode none
attr source rxPk
attr title "Received Bytes, sum(packetBytes)"
attr unit B
statistic medium_network.controller.eth[0].shaper.queue[6] rxBytes:histogram(packetBytes)
field count 0
field mean -nan
field stddev -nan
field min -nan
field max -nan
field sum 0
field sqrsum 0
attr interpolationmode none
attr source rxPk
attr title "Received Bytes, histogram(packetBytes)"
attr unit B
bin	-inf	0
bin	0	0
bin	1	0
statistic medium_network.controller.eth[0].shaper.queue[6] rxLatency:stats
field count 0
field mean -nan
field stddev -nan
field min -nan
field max -nan
field sum 0
field sqrsum 0
attr interpolationmode none
attr source messageAge(rxPk)
attr title "End-to-end latency (received), stats"
attr unit s
statistic medium_network.controller.eth[0].shaper.queue[6] rxLatency:histogram
field count 0
field mean -nan
field stddev -nan
field min -nan
field max -nan
field sum 0
field sqrsum 0
attr interpolationmode none
attr source messageAge(rxPk)
attr title "End-to-end latency (received), histogram"
attr unit s
bin	-inf	0
bin	0	0
bin	1	0
scalar medium_network.controller.eth[0].shaper.queue[6] txPk:count 0
attr source txPk
attr title "Transmitted Packets, count"
attr unit packets
scalar medium_network.controller.eth[0].shaper.queue[6] txBytes:sum(packetBytes) 0
attr interpolationmode none
attr source txPk
attr title "Transmitted Bytes, sum(packetBytes)"
attr unit B
statistic medium_network.controller.eth[0].shaper.queue[6] txBytes:histogram(packetBytes)
field count 0
field mean -nan
field stddev -nan
field min -nan
field max -nan
field sum 0
field sqrsum 0
attr interpolationmode none
attr source txPk
attr title "Transmitted Bytes, histogram(packetBytes)"
attr unit B
bin	-inf	0
bin	0	0
bin	1	0
statistic medium_network.controller.eth[0].shaper.queue[6] txLatency:stats
field count 0
field mean -nan
field stddev -nan
field min -nan
field max -nan
field sum 0
field sqrsum 0
attr interpolationmode none
attr source messageAge(txPk)
attr title "End-to-end latency (transmitted), stats"
attr unit s
statistic medium_network.controller.eth[0].shaper.queue[6] txLatency:histogram
field count 0
field mean -nan
field stddev -nan
field min -nan
field max -nan
field sum 0
field sqrsum 0
attr interpolationmode none
attr source messageAge(txPk)
attr title "End-to-end latency (transmitted), histogram"
attr unit s
bin	-inf	0
bin	0	0
bin	1	0
scalar medium_network.controller.eth[0].shaper.queue[7] dropped:count 0
attr source dropped
attr title "Dropped frames, count"
attr unit packets
scalar medium_network.controller.eth[0].shaper.queue[7] rxPk:count 0
attr source rxPk
attr title "Received Packets, count"
attr unit packets
scalar medium_network.controller.eth[0].shaper.queue[7] rxBytes:sum(packetBytes) 0
attr interpolationmode none
attr source rxPk
attr title "Received Bytes, sum(packetBytes)"
attr unit B
statistic medium_network.controller.eth[0].shaper.queue[7] rxBytes:histogram(packetBytes)
field count 0
field mean -nan
field stddev -nan
field min -nan
field max -nan
field sum 0
field sqrsum 0
attr interpolationmode none
attr source rxPk
attr title "Received Bytes, histogram(packetBytes)"
attr unit B
bin	-inf	0
bin	0	0
bin	1	0
statistic medium_network.controller.eth[0].shaper.queue[7] rxLatency:stats
field count 0
field mean -nan
field stddev -nan
field min -nan
field max -nan
field sum 0
field sqrsum 0
attr interpolationmode none
attr source messageAge(rxPk)
attr title "End-to-end latency (received), stats"
attr unit s
statistic medium_network.controller.eth[0].shaper.queue[7] rxLatency:histogram
field count 0
field mean -nan
field stddev -nan
field min -nan
field max -nan
field sum 0
field sqrsum 0
attr interpolationmode none
attr source messageAge(rxPk)
attr title "End-to-end latency (received), histogram"
attr unit s
bin	-inf	0
bin	0	0
bin	1	0
scalar medium_network.controller.eth[0].shaper.queue[7] txPk:count 0
attr source txPk
attr title "Transmitted Packets, count"
attr unit packets
scalar medium_network.controller.eth[0].shaper.queue[7] txBytes:sum(packetBytes) 0
attr interpolationmode none
attr source txPk
attr title "Transmitted Bytes, sum(packetBytes)"
attr unit B
statistic medium_network.controller.eth[0].shaper.queue[7] txBytes:histogram(packetBytes)
field count 0
field mean -nan
field stddev -nan
field min -nan
field max -nan
field sum 0
field sqrsum 0
attr interpolationmode none
attr source txPk
attr title "Transmitted Bytes, histogram(packetBytes)"
attr unit B
bin	-inf	0
bin	0	0
bin	1	0
statistic medium_network.controller.eth[0].shaper.queue[7] txLatency:stats
field count 0
field mean -nan
field stddev -nan
field min -nan
field max -nan
field sum 0
field sqrsum 0
attr interpolationmode none
attr source messageAge(txPk)
attr title "End-to-end latency (transmitted), stats"
attr unit s
statistic medium_network.controller.eth[0].shaper.queue[7] txLatency:histogram
field count 0
field mean -nan
field stddev -nan
field min -nan
field max -nan
field sum 0
field sqrsum 0
attr interpolationmode none
attr source messageAge(txPk)
attr title "End-to-end latency (transmitted), histogram"
attr unit s
bin	-inf	0
bin	0	0
bin	1	0
scalar medium_network.controller.eth[0].shaper.transmissionSelection "qPcp0 frames/sec" 8035.0356236058
scalar medium_network.controller.eth[0].shaper.transmissionSelection "qPcp0 bits/sec" 20405221.585353
scalar medium_network.controller.eth[0].shaper.transmissionSelection "qPcp1 frames/sec" 0
scalar medium_network.controller.eth[0].shaper.transmissionSelection "qPcp1 bits/sec" 0
scalar medium_network.controller.eth[0].shaper.transmissionSelection "qPcp2 frames/sec" 0
scalar medium_network.controller.eth[0].shaper.transmissionSelection "qPcp2 bits/sec" 0
scalar medium_network.controller.eth[0].shaper.transmissionSelection "qPcp3 frames/sec" 0
scalar medium_network.controller.eth[0].shaper.transmissionSelection "qPcp3 bits/sec" 0
scalar medium_network.controller.eth[0].shaper.transmissionSelection "qPcp4 frames/sec" 0
scalar medium_network.controller.eth[0].shaper.transmissionSelection "qPcp4 bits/sec" 0
scalar medium_network.controller.eth[0].shaper.transmissionSelection "qPcp5 frames/sec" 0
scalar medium_network.controller.eth[0].shaper.transmissionSelection "qPcp5 bits/sec" 0
scalar medium_network.controller.eth[0].shaper.transmissionSelection "qPcp6 frames/sec" 0
scalar medium_network.controller.eth[0].shaper.transmissionSelection "qPcp6 bits/sec" 0
scalar medium_network.controller.eth[0].shaper.transmissionSelection "qPcp7 frames/sec" 0
scalar medium_network.controller.eth[0].shaper.transmissionSelection "qPcp7 bits/sec" 0
statistic medium_network.controller.eth[0].shaper.transmissionSelection qPcp7Latency:stats
field count 1
field mean 0
field stddev -nan
field min 0
field max 0
field sum 0
field sqrsum 0
attr interpolationmode none
attr title "End-to-end latency, stats"
attr unit s
statistic medium_network.controller.eth[0].shaper.transmissionSelection qPcp7Latency:histogram
field count 1
field mean 0
field stddev -nan
field min 0
field max 0
field sum 0
field sqrsum 0
attr interpolationmode none
attr title "End-to-end latency, histogram"
attr unit s
bin	-inf	0
bin	-0.5	0
bin	-0.48	0
bin	-0.46	0
bin	-0.44	0
bin	-0.42	0
bin	-0.4	0
bin	-0.38	0
bin	-0.36	0
bin	-0.34	0
bin	-0.32	0
bin	-0.3	0
bin	-0.28	0
bin	-0.26	0
bin	-0.24	0
bin	-0.22	0
bin	-0.2	0
bin	-0.18	0
bin	-0.16	0
bin	-0.14	0
bin	-0.12	0
bin	-0.1	0
bin	-0.08	0
bin	-0.06	0
bin	-0.04	0
bin	-0.02	0
bin	0	1
bin	0.02	0
bin	0.04	0
bin	0.06	0
bin	0.08	0
bin	0.1	0
bin	0.12	0
bin	0.14	0
bin	0.16	0
bin	0.18	0
bin	0.2	0
bin	0.22	0
bin	0.24	0
bin	0.26	0
bin	0.28	0
bin	0.3	0
bin	0.32	0
bin	0.34	0
bin	0.36	0
bin	0.38	0
bin	0.4	0
bin	0.42	0
bin	0.44	0
bin	0.46	0
bin	0.48	0
bin	0.5	0
scalar medium_network.controller.eth[0].shaper.transmissionSelection qPcp7Pk:count 1
attr title "Received Packets, count"
attr unit packets
scalar medium_network.controller.eth[0].shaper.transmissionSelection qPcp7Bytes:sum(packetBytes) 0
attr interpolationmode none
attr title "Received Bytes, sum(packetBytes)"
attr unit B
statistic medium_network.controller.eth[0].shaper.transmissionSelection qPcp7Bytes:histogram(packetBytes)
field count 1
field mean 0
field stddev -nan
field min 0
field max 0
field sum 0
field sqrsum 0
attr interpolationmode none
attr title "Received Bytes, histogram(packetBytes)"
attr unit B
bin	-inf	0
bin	-0.5	0
bin	-0.48	0
bin	-0.46	0
bin	-0.44	0
bin	-0.42	0
bin	-0.4	0
bin	-0.38	0
bin	-0.36	0
bin	-0.34	0
bin	-0.32	0
bin	-0.3	0
bin	-0.28	0
bin	-0.26	0
bin	-0.24	0
bin	-0.22	0
bin	-0.2	0
bin	-0.18	0
bin	-0.16	0
bin	-0.14	0
bin	-0.12	0
bin	-0.1	0
bin	-0.08	0
bin	-0.06	0
bin	-0.04	0
bin	-0.02	0
bin	0	1
bin	0.02	0
bin	0.04	0
bin	0.06	0
bin	0.08	0
bin	0.1	0
bin	0.12	0
bin	0.14	0
bin	0.16	0
bin	0.18	0
bin	0.2	0
bin	0.22	0
bin	0.24	0
bin	0.26	0
bin	0.28	0
bin	0.3	0
bin	0.32	0
bin	0.34	0
bin	0.36	0
bin	0.38	0
bin	0.4	0
bin	0.42	0
bin	0.44	0
bin	0.46	0
bin	0.48	0
bin	0.5	0
statistic medium_network.controller.eth[0].shaper.transmissionSelection qPcp6Latency:stats
field count 1
field mean 0
field stddev -nan
field min 0
field max 0
field sum 0
field sqrsum 0
attr interpolationmode none
attr title "End-to-end latency, stats"
attr unit s
statistic medium_network.controller.eth[0].shaper.transmissionSelection qPcp6Latency:histogram
field count 1
field mean 0
field stddev -nan
field min 0
field max 0
field sum 0
field sqrsum 0
attr interpolationmode none
attr title "End-to-end latency, histogram"
attr unit s
bin	-inf	0
bin	-0.5	0
bin	-0.48	0
bin	-0.46	0
bin	-0.44	0
bin	-0.42	0
bin	-0.4	0
bin	-0.38	0
bin	-0.36	0
bin	-0.34	0
bin	-0.32	0
bin	-0.3	0
bin	-0.28	0
bin	-0.26	0
bin	-0.24	0
bin	-0.22	0
bin	-0.2	0
bin	-0.18	0
bin	-0.16	0
bin	-0.14	0
bin	-0.12	0
bin	-0.1	0
bin	-0.08	0
bin	-0.06	0
bin	-0.04	0
bin	-0.02	0
bin	0	1
bin	0.02	0
bin	0.04	0
bin	0.06	0
bin	0.08	0
bin	0.1	0
bin	0.12	0
bin	0.14	0
bin	0.16	0
bin	0.18	0
bin	0.2	0
bin	0.22	0
bin	0.24	0
bin	0.26	0
bin	0.28	0
bin	0.3	0
bin	0.32	0
bin	0.34	0
bin	0.36	0
bin	0.38	0
bin	0.4	0
bin	0.42	0
bin	0.44	0
bin	0.46	0
bin	0.48	0
bin	0.5	0
scalar medium_network.controller.eth[0].shaper.transmissionSelection qPcp6Pk:count 1
attr title "Received Packets, count"
attr unit packets
scalar medium_network.controller.eth[0].shaper.transmissionSelection qPcp6Bytes:sum(packetBytes) 0
attr interpolationmode none
attr title "Received Bytes, sum(packetBytes)"
attr unit B
statistic medium_network.controller.eth[0].shaper.transmissionSelection qPcp6Bytes:histogram(packetBytes)
field count 1
field mean 0
field stddev -nan
field min 0
field max 0
field sum 0
field sqrsum 0
attr interpolationmode none
attr title "Received Bytes, histogram(packetBytes)"
attr unit B
bin	-inf	0
bin	-0.5	0
bin	-0.48	0
bin	-0.46	0
bin	-0.44	0
bin	-0.42	0
bin	-0.4	0
bin	-0.38	0
bin	-0.36	0
bin	-0.34	0
bin	-0.32	0
bin	-0.3	0
bin	-0.28	0
bin	-0.26	0
bin	-0.24	0
bin	-0.22	0
bin	-0.2	0
bin	-0.18	0
bin	-0.16	0
bin	-0.14	0
bin	-0.12	0
bin	-0.1	0
bin	-0.08	0
bin	-0.06	0
bin	-0.04	0
bin	-0.02	0
bin	0	1
bin	0.02	0
bin	0.04	0
bin	0.06	0
bin	0.08	0
bin	0.1	0
bin	0.12	0
bin	0.14	0
bin	0.16	0
bin	0.18	0
bin	0.2	0
bin	0.22	0
bin	0.24	0
bin	0.26	0
bin	0.28	0
bin	0.3	0
bin	0.32	0
bin	0.34	0
bin	0.36	0
bin	0.38	0
bin	0.4	0
bin	0.42	0
bin	0.44	0
bin	0.46	0
bin	0.48	0
bin	0.5	0
statistic medium_network.controller.eth[0].shaper.transmissionSelection qPcp5Latency:stats
field count 1
field mean 0
field stddev -nan
field min 0
field max 0
field sum 0
field sqrsum 0
attr interpolationmode none
attr title "End-to-end latency, stats"
attr unit s
statistic medium_network.controller.eth[0].shaper.transmissionSelection qPcp5Latency:histogram
field count 1
field mean 0
field stddev -nan
field min 0
field max 0
field sum 0
field sqrsum 0
attr interpolationmode none
attr title "End-to-end latency, histogram"
attr unit s
bin	-inf	0
bin	-0.5	0
bin	-0.48	0
bin	-0.46	0
bin	-0.44	0
bin	-0.42	0
bin	-0.4	0
bin	-0.38	0
bin	-0.36	0
bin	-0.34	0
bin	-0.32	0
bin	-0.3	0
bin	-0.28	0
bin	-0.26	0
bin	-0.24	0
bin	-0.22	0
bin	-0.2	0
bin	-0.18	0
bin	-0.16	0
bin	-0.14	0
bin	-0.12	0
bin	-0.1	0
bin	-0.08	0
bin	-0.06	0
bin	-0.04	0
bin	-0.02	0
bin	0	1
bin	0.02	0
bin	0.04	0
bin	0.06	0
bin	0.08	0
bin	0.1	0
bin	0.12	0
bin	0.14	0
bin	0.16	0
bin	0.18	0
bin	0.2	0
bin	0.22	0
bin	0.24	0
bin	0.26	0
bin	0.28	0
bin	0.3	0
bin	0.32	0
bin	0.34	0
bin	0.36	0
bin	0.38	0
bin	0.4	0
bin	0.42	0
bin	0.44	0
bin	0.46	0
bin	0.48	0
bin	0.5	0
scalar medium_network.controller.eth[0].shaper.transmissionSelection qPcp5Pk:count 1
attr title "Received Packets, count"
attr unit packets
scalar medium_network.controller.eth[0].shaper.transmissionSelection qPcp5Bytes:sum(packetBytes) 0
attr interpolationmode none
attr title "Received Bytes, sum(packetBytes)"
attr unit B
statistic medium_network.controller.eth[0].shaper.transmissionSelection qPcp5Bytes:histogram(packetBytes)
field count 1
field mean 0
field stddev -nan
field min 0
field max 0
field sum 0
field sqrsum 0
attr interpolationmode none
attr title "Received Bytes, histogram(packetBytes)"
attr unit B
bin	-inf	0
bin	-0.5	0
bin	-0.48	0
bin	-0.46	0
bin	-0.44	0
bin	-0.42	0
bin	-0.4	0
bin	-0.38	0
bin	-0.36	0
bin	-0.34	0
bin	-0.32	0
bin	-0.3	0
bin	-0.28	0
bin	-0.26	0
bin	-0.24	0
bin	-0.22	0
bin	-0.2	0
bin	-0.18	0
bin	-0.16	0
bin	-0.14	0
bin	-0.12	0
bin	-0.1	0
bin	-0.08	0
bin	-0.06	0
bin	-0.04	0
bin	-0.02	0
bin	0	1
bin	0.02	0
bin	0.04	0
bin	0.06	0
bin	0.08	0
bin	0.1	0
bin	0.12	0
bin	0.14	0
bin	0.16	0
bin	0.18	0
bin	0.2	0
bin	0.22	0
bin	0.24	0
bin	0.26	0
bin	0.28	0
bin	0.3	0
bin	0.32	0
bin	0.34	0
bin	0.36	0
bin	0.38	0
bin	0.4	0
bin	0.42	0
bin	0.44	0
bin	0.46	0
bin	0.48	0
bin	0.5	0
statistic medium_network.controller.eth[0].shaper.transmissionSelection qPcp4Latency:stats
field count 1
field mean 0
field stddev -nan
field min 0
field max 0
field sum 0
field sqrsum 0
attr interpolationmode none
attr title "End-to-end latency, stats"
attr unit s
statistic medium_network.controller.eth[0].shaper.transmissionSelection qPcp4Latency:histogram
field count 1
field mean 0
field stddev -nan
field min 0
field max 0
field sum 0
field sqrsum 0
attr interpolationmode none
attr title "End-to-end latency, histogram"
attr unit s
bin	-inf	0
bin	-0.5	0
bin	-0.48	0
bin	-0.46	0
bin	-0.44	0
bin	-0.42	0
bin	-0.4	0
bin	-0.38	0
bin	-0.36	0
bin	-0.34	0
bin	-0.32	0
bin	-0.3	0
bin	-0.28	0
bin	-0.26	0
bin	-0.24	0
bin	-0.22	0
bin	-0.2	0
bin	-0.18	0
bin	-0.16	0
bin	-0.14	0
bin	-0.12	0
bin	-0.1	0
bin	-0.08	0
bin	-0.06	0
bin	-0.04	0
bin	-0.02	0
bin	0	1
bin	0.02	0
bin	0.04	0
bin	0.06	0
bin	0.08	0
bin	0.1	0
bin	0.12	0
bin	0.14	0
bin	0.16	0
bin	0.18	0
bin	0.2	0
bin	0.22	0
bin	0.24	0
bin	0.26	0
bin	0.28	0
bin	0.3	0
bin	0.32	0
bin	0.34	0
bin	0.36	0
bin	0.38	0
bin	0.4	0
bin	0.42	0
bin	0.44	0
bin	0.46	0
bin	0.48	0
bin	0.5	0
scalar medium_network.controller.eth[0].shaper.transmissionSelection qPcp4Pk:count 1
attr title "Received Packets, count"
attr unit packets
scalar medium_network.controller.eth[0].shaper.transmissionSelection qPcp4Bytes:sum(packetBytes) 0
attr interpolationmode none
attr title "Received Bytes, sum(packetBytes)"
attr unit B
statistic medium_network.controller.eth[0].shaper.transmissionSelection qPcp4Bytes:histogram(packetBytes)
field count 1
field mean 0
field stddev -nan
field min 0
field max 0
field sum 0
field sqrsum 0
attr interpolationmode none
attr title "Received Bytes, histogram(packetBytes)"
attr unit B
bin	-inf	0
bin	-0.5	0
bin	-0.48	0
bin	-0.46	0
bin	-0.44	0
bin	-0.42	0
bin	-0.4	0
bin	-0.38	0
bin	-0.36	0
bin	-0.34	0
bin	-0.32	0
bin	-0.3	0
bin	-0.28	0
bin	-0.26	0
bin	-0.24	0
bin	-0.22	0
bin	-0.2	0
bin	-0.18	0
bin	-0.16	0
bin	-0.14	0
bin	-0.12	0
bin	-0.1	0
bin	-0.08	0
bin	-0.06	0
bin	-0.04	0
bin	-0.02	0
bin	0	1
bin	0.02	0
bin	0.04	0
bin	0.06	0
bin	0.08	0
bin	0.1	0
bin	0.12	0
bin	0.14	0
bin	0.16	0
bin	0.18	0
bin	0.2	0
bin	0.22	0
bin	0.24	0
bin	0.26	0
bin	0.28	0
bin	0.3	0
bin	0.32	0
bin	0.34	0
bin	0.36	0
bin	0.38	0
bin	0.4	0
bin	0.42	0
bin	0.44	0
bin	0.46	0
bin	0.48	0
bin	0.5	0
statistic medium_network.controller.eth[0].shaper.transmissionSelection qPcp3Latency:stats
field count 1
field mean 0
field stddev -nan
field min 0
field max 0
field sum 0
field sqrsum 0
attr interpolationmode none
attr title "End-to-end latency, stats"
attr unit s
statistic medium_network.controller.eth[0].shaper.transmissionSelection qPcp3Latency:histogram
field count 1
field mean 0
field stddev -nan
field min 0
field max 0
field sum 0
field sqrsum 0
attr interpolationmode none
attr title "End-to-end latency, histogram"
attr unit s
bin	-inf	0
bin	-0.5	0
bin	-0.48	0
bin	-0.46	0
bin	-0.44	0
bin	-0.42	0
bin	-0.4	0
bin	-0.38	0
bin	-0.36	0
bin	-0.34	0
bin	-0.32	0
bin	-0.3	0
bin	-0.28	0
bin	-0.26	0
bin	-0.24	0
bin	-0.22	0
bin	-0.2	0
bin	-0.18	0
bin	-0.16	0
bin	-0.14	0
bin	-0.12	0
bin	-0.1	0
bin	-0.08	0
bin	-0.06	0
bin	-0.04	0
bin	-0.02	0
bin	0	1
bin	0.02	0
bin	0.04	0
bin	0.06	0
bin	0.08	0
bin	0.1	0
bin	0.12	0
bin	0.14	0
bin	0.16	0
bin	0.18	0
bin	0.2	0
bin	0.22	0
bin	0.24	0
bin	0.26	0
bin	0.28	0
bin	0.3	0
bin	0.32	0
bin	0.34	0
bin	0.36	0
bin	0.38	0
bin	0.4	0
bin	0.42	0
bin	0.44	0
bin	0.46	0
bin	0.48	0
bin	0.5	0
scalar medium_network.controller.eth[0].shaper.transmissionSelection qPcp3Pk:count 1
attr title "Received Packets, count"
attr unit packets
scalar medium_network.controller.eth[0].shaper.transmissionSelection qPcp3Bytes:sum(packetBytes) 0
attr interpolationmode none
attr title "Received Bytes, sum(packetBytes)"
attr unit B
statistic medium_network.controller.eth[0].shaper.transmissionSelection qPcp3Bytes:histogram(packetBytes)
field count 1
field mean 0
field stddev -nan
field min 0
field max 0
field sum 0
field sqrsum 0
attr interpolationmode none
attr title "Received Bytes, histogram(packetBytes)"
attr unit B
bin	-inf	0
bin	-0.5	0
bin	-0.48	0
bin	-0.46	0
bin	-0.44	0
bin	-0.42	0
bin	-0.4	0
bin	-0.38	0
bin	-0.36	0
bin	-0.34	0
bin	-0.32	0
bin	-0.3	0
bin	-0.28	0
bin	-0.26	0
bin	-0.24	0
bin	-0.22	0
bin	-0.2	0
bin	-0.18	0
bin	-0.16	0
bin	-0.14	0
bin	-0.12	0
bin	-0.1	0
bin	-0.08	0
bin	-0.06	0
bin	-0.04	0
bin	-0.02	0
bin	0	1
bin	0.02	0
bin	0.04	0
bin	0.06	0
bin	0.08	0
bin	0.1	0
bin	0.12	0
bin	0.14	0
bin	0.16	0
bin	0.18	0
bin	0.2	0
bin	0.22	0
bin	0.24	0
bin	0.26	0
bin	0.28	0
bin	0.3	0
bin	0.32	0
bin	0.34	0
bin	0.36	0
bin	0.38	0
bin	0.4	0
bin	0.42	0
bin	0.44	0
bin	0.46	0
bin	0.48	0
bin	0.5	0
statistic medium_network.controller.eth[0].shaper.transmissionSelection qPcp2Latency:stats
field count 1
field mean 0
field stddev -nan
field min 0
field max 0
field sum 0
field sqrsum 0
attr interpolationmode none
attr title "End-to-end latency, stats"
attr unit s
statistic medium_network.controller.eth[0].shaper.transmissionSelection qPcp2Latency:histogram
field count 1
field mean 0
field stddev -nan
field min 0
field max 0
field sum 0
field sqrsum 0
attr interpolationmode none
attr title "End-to-end latency, histogram"
attr unit s
bin	-inf	0
bin	-0.5	0
bin	-0.48	0
bin	-0.46	0
bin	-0.44	0
bin	-0.42	0
bin	-0.4	0
bin	-0.38	0
bin	-0.36	0
bin	-0.34	0
bin	-0.32	0
bin	-0.3	0
bin	-0.28	0
bin	-0.26	0
bin	-0.24	0
bin	-0.22	0
bin	-0.2	0
bin	-0.18	0
bin	-0.16	0
bin	-0.14	0
bin	-0.12	0
bin	-0.1	0
bin	-0.08	0
bin	-0.06	0
bin	-0.04	0
bin	-0.02	0
bin	0	1
bin	0.02	0
bin	0.04	0
bin	0.06	0
bin	0.08	0
bin	0.1	0
bin	0.12	0
bin	0.14	0
bin	0.16	0
bin	0.18	0
bin	0.2	0
bin	0.22	0
bin	0.24	0
bin	0.26	0
bin	0.28	0
bin	0.3	0
bin	0.32	0
bin	0.34	0
bin	0.36	0
bin	0.38	0
bin	0.4	0
bin	0.42	0
bin	0.44	0
bin	0.46	0
bin	0.48	0
bin	0.5	0
scalar medium_network.controller.eth[0].shaper.transmissionSelection qPcp2Pk:count 1
attr title "Received Packets, count"
attr unit packets
scalar medium_network.controller.eth[0].shaper.transmissionSelection qPcp2Bytes:sum(packetBytes) 0
attr interpolationmode none
attr title "Received Bytes, sum(packetBytes)"
attr unit B
statistic medium_network.controller.eth[0].shaper.transmissionSelection qPcp2Bytes:histogram(packetBytes)
field count 1
field mean 0
field stddev -nan
field min 0
field max 0
field sum 0
field sqrsum 0
attr interpolationmode none
attr title "Received Bytes, histogram(packetBytes)"
attr unit B
bin	-inf	0
bin	-0.5	0
bin	-0.48	0
bin	-0.46	0
bin	-0.44	0
bin	-0.42	0
bin	-0.4	0
bin	-0.38	0
bin	-0.36	0
bin	-0.34	0
bin	-0.32	0
bin	-0.3	0
bin	-0.28	0
bin	-0.26	0
bin	-0.24	0
bin	-0.22	0
bin	-0.2	0
bin	-0.18	0
bin	-0.16	0
bin	-0.14	0
bin	-0.12	0
bin	-0.1	0
bin	-0.08	0
bin	-0.06	0
bin	-0.04	0
bin	-0.02	0
bin	0	1
bin	0.02	0
bin	0.04	0
bin	0.06	0
bin	0.08	0
bin	0.1	0
bin	0.12	0
bin	0.14	0
bin	0.16	0
bin	0.18	0
bin	0.2	0
bin	0.22	0
bin	0.24	0
bin	0.26	0
bin	0.28	0
bin	0.3	0
bin	0.32	0
bin	0.34	0
bin	0.36	0
bin	0.38	0
bin	0.4	0
bin	0.42	0
bin	0.44	0
bin	0.46	0
bin	0.48	0
bin	0.5	0
statistic medium_network.controller.eth[0].shaper.transmissionSelection qPcp1Latency:stats
field count 1
field mean 0
field stddev -nan
field min 0
field max 0
field sum 0
field sqrsum 0
attr interpolationmode none
attr title "End-to-end latency, stats"
attr unit s
statistic medium_network.controller.eth[0].shaper.transmissionSelection qPcp1Latency:histogram
field count 1
field mean 0
field stddev -nan
field min 0
field max 0
field sum 0
field sqrsum 0
attr interpolationmode none
attr title "End-to-end latency, histogram"
attr unit s
bin	-inf	0
bin	-0.5	0
bin	-0.48	0
bin	-0.46	0
bin	-0.44	0
bin	-0.42	0
bin	-0.4	0
bin	-0.38	0
bin	-0.36	0
bin	-0.34	0
bin	-0.32	0
bin	-0.3	0
bin	-0.28	0
bin	-0.26	0
bin	-0.24	0
bin	-0.22	0
bin	-0.2	0
bin	-0.18	0
bin	-0.16	0
bin	-0.14	0
bin	-0.12	0
bin	-0.1	0
bin	-0.08	0
bin	-0.06	0
bin	-0.04	0
bin	-0.02	0
bin	0	1
bin	0.02	0
bin	0.04	0
bin	0.06	0
bin	0.08	0
bin	0.1	0
bin	0.12	0
bin	0.14	0
bin	0.16	0
bin	0.18	0
bin	0.2	0
bin	0.22	0
bin	0.24	0
bin	0.26	0
bin	0.28	0
bin	0.3	0
bin	0.32	0
bin	0.34	0
bin	0.36	0
bin	0.38	0
bin	0.4	0
bin	0.42	0
bin	0.44	0
bin	0.46	0
bin	0.48	0
bin	0.5	0
scalar medium_network.controller.eth[0].shaper.transmissionSelection qPcp1Pk:count 1
attr title "Received Packets, count"
attr unit packets
scalar medium_network.controller.eth[0].shaper.transmissionSelection qPcp1Bytes:sum(packetBytes) 0
attr interpolationmode none
attr title "Received Bytes, sum(packetBytes)"
attr unit B
statistic medium_network.controller.eth[0].shaper.transmissionSelection qPcp1Bytes:histogram(packetBytes)
field count 1
field mean 0
field stddev -nan
field min 0
field max 0
field sum 0
field sqrsum 0
attr interpolationmode none
attr title "Received Bytes, histogram(packetBytes)"
attr unit B
bin	-inf	0
bin	-0.5	0
bin	-0.48	0
bin	-0.46	0
bin	-0.44	0
bin	-0.42	0
bin	-0.4	0
bin	-0.38	0
bin	-0.36	0
bin	-0.34	0
bin	-0.32	0
bin	-0.3	0
bin	-0.28	0
bin	-0.26	0
bin	-0.24	0
bin	-0.22	0
bin	-0.2	0
bin	-0.18	0
bin	-0.16	0
bin	-0.14	0
bin	-0.12	0
bin	-0.1	0
bin	-0.08	0
bin	-0.06	0
bin	-0.04	0
bin	-0.02	0
bin	0	1
bin	0.02	0
bin	0.04	0
bin	0.06	0
bin	0.08	0
bin	0.1	0
bin	0.12	0
bin	0.14	0
bin	0.16	0
bin	0.18	0
bin	0.2	0
bin	0.22	0
bin	0.24	0
bin	0.26	0
bin	0.28	0
bin	0.3	0
bin	0.32	0
bin	0.34	0
bin	0.36	0
bin	0.38	0
bin	0.4	0
bin	0.42	0
bin	0.44	0
bin	0.46	0
bin	0.48	0
bin	0.5	0
statistic medium_network.controller.eth[0].shaper.transmissionSelection qPcp0Latency:stats
field count 4768
field mean 2.5286518456376e-06
field stddev 3.8020472331375e-06
field min 0
field max 1.1068e-05
field sum 0.012056612
field sqrsum 9.9396643783996e-08
attr interpolationmode none
attr title "End-to-end latency, stats"
attr unit s
statistic medium_network.controller.eth[0].shaper.transmissionSelection qPcp0Latency:histogram
field count 4768
field mean 2.5286518456376e-06
field stddev 3.8020472331375e-06
field min 0
field max 1.1068e-05
field sum 0.012056612
field sqrsum 9.9396643783996e-08
attr interpolationmode none
attr title "End-to-end latency, histogram"
attr unit s
bin	-inf	0
bin	0	3185
bin	2e-07	1
bin	4e-07	0
bin	6e-07	0
bin	8e-07	0
bin	1e-06	0
bin	1.2e-06	1
bin	1.4e-06	0
bin	1.6e-06	0
bin	1.8e-06	0
bin	2e-06	0
bin	2.2e-06	0
bin	2.4e-06	0
bin	2.6e-06	0
bin	2.8e-06	0
bin	3e-06	0
bin	3.2e-06	0
bin	3.4e-06	0
bin	3.6e-06	0
bin	3.8e-06	0
bin	4e-06	0
bin	4.2e-06	0
bin	4.4e-06	0
bin	4.6e-06	0
bin	4.8e-06	0
bin	5e-06	789
bin	5.2e-06	0
bin	5.4e-06	0
bin	5.6e-06	0
bin	5.8e-06	0
bin	6e-06	2
bin	6.2e-06	0
bin	6.4e-06	1
bin	6.6e-06	0
bin	6.8e-06	0
bin	7e-06	0
bin	7.2e-06	0
bin	7.4e-06	0
bin	7.6e-06	0
bin	7.8e-06	0
bin	8e-06	0
bin	8.2e-06	0
bin	8.4e-06	0
bin	8.6e-06	0
bin	8.8e-06	0
bin	9e-06	0
bin	9.2e-06	0
bin	9.4e-06	0
bin	9.6e-06	0
bin	9.8e-06	788
bin	1e-05	0
bin	1.02e-05	0
bin	1.04e-05	0
bin	1.06e-05	0
bin	1.08e-05	0
bin	1.1e-05	1
bin	1.12e-05	0
bin	1.14e-05	0
bin	1.16e-05	0
bin	1.18e-05	0
bin	1.2e-05	0
bin	1.22e-05	0
bin	1.24e-05	0
bin	1.26e-05	0
bin	1.28e-05	0
bin	1.3e-05	0
bin	1.32e-05	0
bin	1.34e-05	0
bin	1.36e-05	0
bin	1.38e-05	0
bin	1.4e-05	0
scalar medium_network.controller.eth[0].shaper.transmissionSelection qPcp0Pk:count 4768
attr title "Received Packets, count"
attr unit packets
scalar medium_network.controller.eth[0].shaper.transmissionSelection qPcp0Bytes:sum(packetBytes) 1513243
attr interpolationmode none
attr title "Received Bytes, sum(packetBytes)"
attr unit B
statistic medium_network.controller.eth[0].shaper.transmissionSelection qPcp0Bytes:histogram(packetBytes)
field count 4768
field mean 317.37479026846
field stddev 255.40525974709
field min 0
field max 594
field sum 1513243
field sqrsum 791225393
attr interpolationmode none
attr title "Received Bytes, histogram(packetBytes)"
attr unit B
bin	-inf	0
bin	0	1
bin	10	0
bin	20	0
bin	30	0
bin	40	0
bin	50	0
bin	60	2387
bin	70	0
bin	80	0
bin	90	0
bin	100	2
bin	110	5
bin	120	0
bin	130	0
bin	140	1
bin	150	0
bin	160	0
bin	170	0
bin	180	0
bin	190	0
bin	200	0
bin	210	0
bin	220	0
bin	230	0
bin	240	0
bin	250	0
bin	260	0
bin	270	0
bin	280	0
bin	290	0
bin	300	0
bin	310	0
bin	320	0
bin	330	0
bin	340	0
bin	350	0
bin	360	0
bin	370	2
bin	380	0
bin	390	0
bin	400	0
bin	410	0
bin	420	0
bin	430	0
bin	440	0
bin	450	0
bin	460	0
bin	470	0
bin	480	0
bin	490	0
bin	500	1
bin	510	0
bin	520	0
bin	530	789
bin	540	0
bin	550	0
bin	560	0
bin	570	0
bin	580	0
bin	590	1580
bin	600	0
bin	610	0
bin	620	0
bin	630	0
bin	640	0
bin	650	0
bin	660	0
bin	670	0
bin	680	0
bin	690	0
bin	700	0
bin	710	0
bin	720	0
bin	730	0
bin	740	0
bin	750	0
statistic medium_network.controller.eth[0].inControl rxLatency:stats
field count 4768
field mean 1.581991568792e-05
field stddev 7.1181453149962e-06
field min 9.252e-06
field max 2.7012e-05
field sum 0.075429358000005
field sqrsum 1.434820405276e-06
attr interpolationmode none
attr source messageAge(rxPk)
attr title "End-to-end latency (received), stats"
attr unit s
statistic medium_network.controller.eth[0].inControl rxLatency:histogram
field count 4768
field mean 1.581991568792e-05
field stddev 7.1181453149962e-06
field min 9.252e-06
field max 2.7012e-05
field sum 0.075429358000005
field sqrsum 1.434820405276e-06
attr interpolationmode none
attr source messageAge(rxPk)
attr title "End-to-end latency (received), histogram"
attr unit s
bin	-inf	0
bin	4.5e-06	0
bin	5e-06	0
bin	5.5e-06	0
bin	6e-06	0
bin	6.5e-06	0
bin	7e-06	0
bin	7.5e-06	0
bin	8e-06	0
bin	8.5e-06	0
bin	9e-06	2389
bin	9.5e-06	2
bin	1e-05	2
bin	1.05e-05	1
bin	1.1e-05	0
bin	1.15e-05	0
bin	1.2e-05	0
bin	1.25e-05	0
bin	1.3e-05	0
bin	1.35e-05	0
bin	1.4e-05	2
bin	1.45e-05	0
bin	1.5e-05	0
bin	1.55e-05	0
bin	1.6e-05	0
bin	1.65e-05	3
bin	1.7e-05	0
bin	1.75e-05	790
bin	1.8e-05	1
bin	1.85e-05	0
bin	1.9e-05	0
bin	1.95e-05	0
bin	2e-05	0
bin	2.05e-05	0
bin	2.1e-05	0
bin	2.15e-05	1
bin	2.2e-05	0
bin	2.25e-05	789
bin	2.3e-05	0
bin	2.35e-05	1
bin	2.4e-05	0
bin	2.45e-05	0
bin	2.5e-05	0
bin	2.55e-05	0
bin	2.6e-05	0
bin	2.65e-05	0
bin	2.7e-05	787
bin	2.75e-05	0
bin	2.8e-05	0
bin	2.85e-05	0
bin	2.9e-05	0
bin	2.95e-05	0
bin	3e-05	0
bin	3.05e-05	0
bin	3.1e-05	0
bin	3.15e-05	0
scalar medium_network.controller.eth[0].mac "simulated time" 0.593276772289
scalar medium_network.controller.eth[0].mac full-duplex 1
scalar medium_network.controller.eth[0].mac "frames/sec sent" 8035.0356236058
scalar medium_network.controller.eth[0].mac "frames/sec rcvd" 8036.7211775441
scalar medium_network.controller.eth[0].mac "bits/sec sent" 20405221.585353
scalar medium_network.controller.eth[0].mac "bits/sec rcvd" 20345188.896288
scalar medium_network.controller.eth[0].mac "rx channel idle (%)" 97.914046094835
scalar medium_network.controller.eth[0].mac "rx channel utilization (%)" 2.0859539051651
scalar medium_network.controller.eth[0].mac droppedPkNotForUs:count 0
attr interpolationmode none
attr source dropPkNotForUs
attr title "packets dropped/not for us, count"
scalar medium_network.controller.eth[0].mac droppedPkNotForUs:sum(packetBytes) 0
attr interpolationmode none
attr source dropPkNotForUs
attr title "packets dropped/not for us, sum(packetBytes)"
scalar medium_network.controller.eth[0].mac droppedPkIfaceDown:count 0
attr interpolationmode none
attr source dropPkIfaceDown
attr title "packets dropped/interface down, count"
scalar medium_network.controller.eth[0].mac droppedPkIfaceDown:sum(packetBytes) 0
attr interpolationmode none
attr source dropPkIfaceDown
attr title "packets dropped/interface down, sum(packetBytes)"
scalar medium_network.controller.eth[0].mac droppedPkBitError:count 0
attr interpolationmode none
attr source dropPkBitError
attr title "packets dropped/bit error, count"
scalar medium_network.controller.eth[0].mac droppedPkBitError:sum(packetBytes) 0
attr interpolationmode none
attr source dropPkBitError
attr title "packets dropped/bit error, sum(packetBytes)"
scalar medium_network.controller.eth[0].mac rxPkFromHL:count 4767
attr interpolationmode none
attr source rxPkFromHL
attr title "packet bytes from higher layer, count"
scalar medium_network.controller.eth[0].mac rxPkFromHL:sum(packetBytes) 1513243
attr interpolationmode none
attr source rxPkFromHL
attr title "packet bytes from higher layer, sum(packetBytes)"
scalar medium_network.controller.eth[0].mac rxPausePkUnits:count 0
attr interpolationmode none
attr title "pause units received, count"
scalar medium_network.controller.eth[0].mac rxPausePkUnits:sum 0
attr interpolationmode none
attr title "pause units received, sum"
scalar medium_network.controller.eth[0].mac txPausePkUnits:count 0
attr interpolationmode none
attr title "pause units sent, count"
scalar medium_network.controller.eth[0].mac txPausePkUnits:sum 0
attr interpolationmode none
attr title "pause units sent, sum"
scalar medium_network.controller.eth[0].mac rxPkOk:count 4768
attr interpolationmode none
attr source rxPkOk
attr title "packets received OK, count"
scalar medium_network.controller.eth[0].mac rxPkOk:sum(packetBytes) 1508791
attr interpolationmode none
attr source rxPkOk
attr title "packets received OK, sum(packetBytes)"
scalar medium_network.controller.eth[0].mac txPk:count 4767
attr interpolationmode none
attr source txPk
attr title "packets transmitted, count"
scalar medium_network.controller.eth[0].mac txPk:sum(packetBytes) 1513243
attr interpolationmode none
attr source txPk
attr title "packets transmitted, sum(packetBytes)"
scalar medium_network.controller.eth[0].mac passedUpPk:count 4768
attr interpolationmode none
attr source packetSentToUpper
attr title "packets passed to higher layer, count"
scalar medium_network.controller.eth[0].mac passedUpPk:sum(packetBytes) 1508791
attr interpolationmode none
attr source packetSentToUpper
attr title "packets passed to higher layer, sum(packetBytes)"
scalar medium_network.controller.eth[0].encap pauseSent:count 0
attr title "pause sent, count"
scalar medium_network.controller.eth[0].encap pauseSent:sum 0
attr title "pause sent, sum"
scalar medium_network.controller.eth[0].encap decapPk:count 4768
attr interpolationmode none
attr source decapPk
attr title "packets decapsulated, count"
scalar medium_network.controller.eth[0].encap decapPk:sum(packetBytes) 1408623
attr interpolationmode none
attr source decapPk
attr title "packets decapsulated, sum(packetBytes)"
scalar medium_network.controller.eth[0].encap encapPk:count 4767
attr interpolationmode none
attr source encapPk
attr title "packets encapsulated, count"
scalar medium_network.controller.eth[0].encap encapPk:sum(packetBytes) 1413123
attr interpolationmode none
attr source encapPk
attr title "packets encapsulated, sum(packetBytes)"
scalar medium_network.controller.controllerApps[0] numPacketOut 7
scalar medium_network.controller.controllerApps[0] numFlowMod 7
scalar medium_network.controller.controllerApps[0] packetsDropped 787
scalar medium_network.controller.controllerApps[0] packetsFlooded 2
scalar medium_network.controller.OF_Controller numPacketIn 796
scalar medium_network.controller.OF_Controller packetsPerSecondAt-0 802
scalar medium_network.controller.OF_Controller avgQueueSizeAt-0 1.624e-06
statistic medium_network.controller.OF_Controller waitingTime:stats
field count 802
field mean 2.0249376558603e-09
field stddev 3.5393269447113e-08
field min 0
field max 8.12e-07
field sum 1.624e-06
field sqrsum 1.006688e-12
attr interpolationmode none
attr title "WaitingTime, stats"
statistic medium_network.controller.OF_Controller queueSize:stats
field count 802
field mean 0.0049875311720698
field stddev 0.086404456953405
field min 0
field max 2
field sum 4
field sqrsum 6
attr interpolationmode none
attr title "QueueSize, stats"
scalar medium_network.controller.scheduler.period[0] numberOfCycles:count 593
attr interpolationmode none
attr source newCycle
attr title "Number of cycle, count"
scalar medium_network.ethswitch.beswitch.ifOut[0].channel messagesDiscarded:count 0
attr interpolationmode none
attr source constant1(messageDiscarded)
scalar medium_network.ethswitch.beswitch.ifOut[0].channel messages:count 4769
attr interpolationmode none
attr source constant1(messageSent)
scalar medium_network.ethswitch.beswitch.ifOut[1].channel messagesDiscarded:count 0
attr interpolationmode none
attr source constant1(messageDiscarded)
scalar medium_network.ethswitch.beswitch.ifOut[1].channel messages:count 4743
attr interpolationmode none
attr source constant1(messageSent)
scalar medium_network.ethswitch.beswitch.ifOut[2].channel messagesDiscarded:count 0
attr interpolationmode none
attr source constant1(messageDiscarded)
scalar medium_network.ethswitch.beswitch.ifOut[2].channel messages:count 26
attr interpolationmode none
attr source constant1(messageSent)
scalar medium_network.ethswitch.phy[0].upperLayerOut.channel messagesDiscarded:count 0
attr interpolationmode none
attr source constant1(messageDiscarded)
scalar medium_network.ethswitch.phy[0].upperLayerOut.channel messages:count 4767
attr interpolationmode none
attr source constant1(messageSent)
scalar medium_network.ethswitch.phy[1].upperLayerOut.channel messagesDiscarded:count 0
attr interpolationmode none
attr source constant1(messageDiscarded)
scalar medium_network.ethswitch.phy[1].upperLayerOut.channel messages:count 4745
attr interpolationmode none
attr source constant1(messageSent)
scalar medium_network.ethswitch.phy[2].upperLayerOut.channel messagesDiscarded:count 0
attr interpolationmode none
attr source constant1(messageDiscarded)
scalar medium_network.ethswitch.phy[2].upperLayerOut.channel messages:count 25
attr interpolationmode none
attr source constant1(messageSent)
scalar medium_network.ethswitch.beswitch "processed frames" 9536
scalar medium_network.ethswitch.beswitch "discarded frames" 0
statistic medium_network.ethswitch.phy[0].shaper q7QueueSize:stats
field count 1
field mean 0
field stddev -nan
field min 0
field max 0
field sum 0
field sqrsum 0
attr interpolationmode sample-hold
attr title "Q-Queue Size (q7QueueSize)"
attr unit B
statistic medium_network.ethswitch.phy[0].shaper q7QueueLength:stats
field count 1
field mean 0
field stddev -nan
field min 0
field max 0
field sum 0
field sqrsum 0
attr interpolationmode sample-hold
attr title "Q-Queue Length (q7QueueLength)"
attr unit packets
statistic medium_network.ethswitch.phy[0].shaper q6QueueSize:stats
field count 1
field mean 0
field stddev -nan
field min 0
field max 0
field sum 0
field sqrsum 0
attr interpolationmode sample-hold
attr title "Q-Queue Size (q6QueueSize)"
attr unit B
statistic medium_network.ethswitch.phy[0].shaper q6QueueLength:stats
field count 1
field mean 0
field stddev -nan
field min 0
field max 0
field sum 0
field sqrsum 0
attr interpolationmode sample-hold
attr title "Q-Queue Length (q6QueueLength)"
attr unit packets
statistic medium_network.ethswitch.phy[0].shaper q5QueueSize:stats
field count 1
field mean 0
field stddev -nan
field min 0
field max 0
field sum 0
field sqrsum 0
attr interpolationmode sample-hold
attr title "Q-Queue Size (q5QueueSize)"
attr unit B
statistic medium_network.ethswitch.phy[0].shaper q5QueueLength:stats
field count 1
field mean 0
field stddev -nan
field min 0
field max 0
field sum 0
field sqrsum 0
attr interpolationmode sample-hold
attr title "Q-Queue Length (q5QueueLength)"
attr unit packets
statistic medium_network.ethswitch.phy[0].shaper q4QueueSize:stats
field count 1
field mean 0
field stddev -nan
field min 0
field max 0
field sum 0
field sqrsum 0
attr interpolationmode sample-hold
attr title "Q-Queue Size (q4QueueSize)"
attr unit B
statistic medium_network.ethswitch.phy[0].shaper q4QueueLength:stats
field count 1
field mean 0
field stddev -nan
field min 0
field max 0
field sum 0
field sqrsum 0
attr interpolationmode sample-hold
attr title "Q-Queue Length (q4QueueLength)"
attr unit packets
statistic medium_network.ethswitch.phy[0].shaper q3QueueSize:stats
field count 1
field mean 0
field stddev -nan
field min 0
field max 0
field sum 0
field sqrsum 0
attr interpolationmode sample-hold
attr title "Q-Queue Size (q3QueueSize)"
attr unit B
statistic medium_network.ethswitch.phy[0].shaper q3QueueLength:stats
field count 1
field mean 0
field stddev -nan
field min 0
field max 0
field sum 0
field sqrsum 0
attr interpolationmode sample-hold
attr title "Q-Queue Length (q3QueueLength)"
attr unit packets
statistic medium_network.ethswitch.phy[0].shaper q2QueueSize:stats
field count 1
field mean 0
field stddev -nan
field min 0
field max 0
field sum 0
field sqrsum 0
attr interpolationmode sample-hold
attr title "Q-Queue Size (q2QueueSize)"
attr unit B
statistic medium_network.ethswitch.phy[0].shaper q2QueueLength:stats
field count 1
field mean 0
field stddev -nan
field min 0
field max 0
field sum 0
field sqrsum 0
attr interpolationmode sample-hold
attr title "Q-Queue Length (q2QueueLength)"
attr unit packets
statistic medium_network.ethswitch.phy[0].shaper q1QueueSize:stats
field count 1
field mean 0
field stddev -nan
field min 0
field max 0
field sum 0
field sqrsum 0
attr interpolationmode sample-hold
attr title "Q-Queue Size (q1QueueSize)"
attr unit B
statistic medium_network.ethswitch.phy[0].shaper q1QueueLength:stats
field count 1
field mean 0
field stddev -nan
field min 0
field max 0
field sum 0
field sqrsum 0
attr interpolationmode sample-hold
attr title "Q-Queue Length (q1QueueLength)"
attr unit packets
statistic medium_network.ethswitch.phy[0].shaper q0QueueSize:stats
field count 3165
field mean 279.13902053712
field stddev 280.95289073313
field min 0
field max 594
field sum 883475
field sqrsum 496361189
attr interpolationmode sample-hold
attr title "Q-Queue Size (q0QueueSize)"
attr unit B
statistic medium_network.ethswitch.phy[0].shaper q0QueueLength:stats
field count 3165
field mean 0.4998420221169
field stddev 0.50007898270328
field min 0
field max 1
field sum 1582
field sqrsum 1582
attr interpolationmode sample-hold
attr title "Q-Queue Length (q0QueueLength)"
attr unit packets
statistic medium_network.ethswitch.phy[0].inControl rxLatency:stats
field count 4767
field mean 5.1827132368366e-06
field stddev 5.3035106041453e-06
field min 6.26e-07
field max 1.4366e-05
field sum 0.024705994
field sqrsum 2.62098435188e-07
attr interpolationmode none
attr source messageAge(rxPk)
attr title "End-to-end latency (received), stats"
attr unit s
statistic medium_network.ethswitch.phy[0].inControl rxLatency:histogram
field count 4767
field mean 5.1827132368366e-06
field stddev 5.3035106041453e-06
field min 6.26e-07
field max 1.4366e-05
field sum 0.024705994
field sqrsum 2.62098435188e-07
attr interpolationmode none
attr source messageAge(rxPk)
attr title "End-to-end latency (received), histogram"
attr unit s
bin	-inf	0
bin	0	0
bin	2e-07	0
bin	4e-07	0
bin	6e-07	2384
bin	8e-07	0
bin	1e-06	6
bin	1.2e-06	1
bin	1.4e-06	0
bin	1.6e-06	0
bin	1.8e-06	0
bin	2e-06	0
bin	2.2e-06	0
bin	2.4e-06	0
bin	2.6e-06	0
bin	2.8e-06	0
bin	3e-06	2
bin	3.2e-06	0
bin	3.4e-06	0
bin	3.6e-06	0
bin	3.8e-06	0
bin	4e-06	0
bin	4.2e-06	0
bin	4.4e-06	2
bin	4.6e-06	0
bin	4.8e-06	0
bin	5e-06	790
bin	5.2e-06	0
bin	5.4e-06	0
bin	5.6e-06	0
bin	5.8e-06	0
bin	6e-06	1
bin	6.2e-06	0
bin	6.4e-06	0
bin	6.6e-06	1
bin	6.8e-06	0
bin	7e-06	1
bin	7.2e-06	0
bin	7.4e-06	0
bin	7.6e-06	0
bin	7.8e-06	0
bin	8e-06	0
bin	8.2e-06	0
bin	8.4e-06	0
bin	8.6e-06	0
bin	8.8e-06	0
bin	9e-06	0
bin	9.2e-06	1
bin	9.4e-06	0
bin	9.6e-06	0
bin	9.8e-06	788
bin	1e-05	0
bin	1.02e-05	0
bin	1.04e-05	0
bin	1.06e-05	0
bin	1.08e-05	1
bin	1.1e-05	1
bin	1.12e-05	0
bin	1.14e-05	0
bin	1.16e-05	0
bin	1.18e-05	0
bin	1.2e-05	1
bin	1.22e-05	0
bin	1.24e-05	0
bin	1.26e-05	0
bin	1.28e-05	0
bin	1.3e-05	0
bin	1.32e-05	0
bin	1.34e-05	0
bin	1.36e-05	0
bin	1.38e-05	0
bin	1.4e-05	0
bin	1.42e-05	787
bin	1.44e-05	0
bin	1.46e-05	0
bin	1.48e-05	0
bin	1.5e-05	0
bin	1.52e-05	0
bin	1.54e-05	0
bin	1.56e-05	0
bin	1.58e-05	0
bin	1.6e-05	0
bin	1.62e-05	0
bin	1.64e-05	0
bin	1.66e-05	0
bin	1.68e-05	0
bin	1.7e-05	0
bin	1.72e-05	0
bin	1.74e-05	0
bin	1.76e-05	0
bin	1.78e-05	0
bin	1.8e-05	0
scalar medium_network.ethswitch.phy[0].mac "simulated time" 0.593276772289
scalar medium_network.ethswitch.phy[0].mac full-duplex 1
scalar medium_network.ethswitch.phy[0].mac "frames/sec sent" 8036.7211775441
scalar medium_network.ethswitch.phy[0].mac "frames/sec rcvd" 8035.0356236058
scalar medium_network.ethswitch.phy[0].mac "bits/sec sent" 20345188.896288
scalar medium_network.ethswitch.phy[0].mac "bits/sec rcvd" 20405221.585353
scalar medium_network.ethswitch.phy[0].mac "rx channel idle (%)" 97.908053613474
scalar medium_network.ethswitch.phy[0].mac "rx channel utilization (%)" 2.0919463865264
scalar medium_network.ethswitch.phy[0].mac droppedPkNotForUs:count 0
attr interpolationmode none
attr source dropPkNotForUs
attr title "packets dropped/not for us, count"
scalar medium_network.ethswitch.phy[0].mac droppedPkNotForUs:sum(packetBytes) 0
attr interpolationmode none
attr source dropPkNotForUs
attr title "packets dropped/not for us, sum(packetBytes)"
scalar medium_network.ethswitch.phy[0].mac droppedPkIfaceDown:count 0
attr interpolationmode none
attr source dropPkIfaceDown
attr title "packets dropped/interface down, count"
[...]
field mean -nan
field stddev -nan
field min -nan
field max -nan
field sum 0
field sqrsum 0
attr interpolationmode none
attr title "End-to-end latency, histogram"
attr unit s
bin	-inf	0
bin	0	0
bin	1	0
scalar medium_network.sink.app[2] rxQPcp1Pk:count 0
attr title "Received Packets, count"
attr unit packets
scalar medium_network.sink.app[2] rxQPcp1Bytes:sum(packetBytes) 0
attr interpolationmode none
attr title "Received Bytes, sum(packetBytes)"
attr unit B
statistic medium_network.sink.app[2] rxQPcp1Bytes:histogram(packetBytes)
field count 0
field mean -nan
field stddev -nan
field min -nan
field max -nan
field sum 0
field sqrsum 0
attr interpolationmode none
attr title "Received Bytes, histogram(packetBytes)"
attr unit B
bin	-inf	0
bin	0	0
bin	1	0
statistic medium_network.sink.app[2] rxQPcp0LatencyInner:stats
field count 1759
field mean 0.0003291745704855
field stddev 0.00016966593235535
field min 2.343e-05
field max 0.000830053427
field sum 0.579018069484
field sqrsum 0.00024120474160807
attr interpolationmode none
attr title "End-to-end latency inner, stats"
attr unit s
statistic medium_network.sink.app[2] rxQPcp0LatencyInner:histogram
field count 1759
field mean 0.0003291745704855
field stddev 0.00016966593235535
field min 2.343e-05
field max 0.000830053427
field sum 0.579018069484
field sqrsum 0.00024120474160807
attr interpolationmode none
attr title "End-to-end latency inner, histogram"
attr unit s
bin	-inf	0
bin	0	0
bin	2e-05	43
bin	4e-05	27
bin	6e-05	36
bin	8e-05	48
bin	0.0001	45
bin	0.00012	56
bin	0.00014	73
bin	0.00016	64
bin	0.00018	70
bin	0.0002	51
bin	0.00022	77
bin	0.00024	68
bin	0.00026	68
bin	0.00028	85
bin	0.0003	79
bin	0.00032	73
bin	0.00034	81
bin	0.00036	75
bin	0.00038	65
bin	0.0004	55
bin	0.00042	41
bin	0.00044	67
bin	0.00046	40
bin	0.00048	50
bin	0.0005	43
bin	0.00052	45
bin	0.00054	43
bin	0.00056	31
bin	0.00058	32
bin	0.0006	35
bin	0.00062	30
bin	0.00064	13
bin	0.00066	9
bin	0.00068	20
bin	0.0007	10
bin	0.00072	5
bin	0.00074	3
bin	0.00076	0
bin	0.00078	1
bin	0.0008	1
bin	0.00082	1
bin	0.00084	0
bin	0.00086	0
bin	0.00088	0
bin	0.0009	0
bin	0.00092	0
bin	0.00094	0
bin	0.00096	0
bin	0.00098	0
bin	0.001	0
statistic medium_network.sink.app[2] rxQPcp0Latency:stats
field count 1759
field mean 0.0003291745704855
field stddev 0.00016966593235535
field min 2.343e-05
field max 0.000830053427
field sum 0.579018069484
field sqrsum 0.00024120474160807
attr interpolationmode none
attr title "End-to-end latency, stats"
attr unit s
statistic medium_network.sink.app[2] rxQPcp0Latency:histogram
field count 1759
field mean 0.0003291745704855
field stddev 0.00016966593235535
field min 2.343e-05
field max 0.000830053427
field sum 0.579018069484
field sqrsum 0.00024120474160807
attr interpolationmode none
attr title "End-to-end latency, histogram"
attr unit s
bin	-inf	0
bin	0	0
bin	2e-05	43
bin	4e-05	27
bin	6e-05	36
bin	8e-05	48
bin	0.0001	45
bin	0.00012	56
bin	0.00014	73
bin	0.00016	64
bin	0.00018	70
bin	0.0002	51
bin	0.00022	77
bin	0.00024	68
bin	0.00026	68
bin	0.00028	85
bin	0.0003	79
bin	0.00032	73
bin	0.00034	81
bin	0.00036	75
bin	0.00038	65
bin	0.0004	55
bin	0.00042	41
bin	0.00044	67
bin	0.00046	40
bin	0.00048	50
bin	0.0005	43
bin	0.00052	45
bin	0.00054	43
bin	0.00056	31
bin	0.00058	32
bin	0.0006	35
bin	0.00062	30
bin	0.00064	13
bin	0.00066	9
bin	0.00068	20
bin	0.0007	10
bin	0.00072	5
bin	0.00074	3
bin	0.00076	0
bin	0.00078	1
bin	0.0008	1
bin	0.00082	1
bin	0.00084	0
bin	0.00086	0
bin	0.00088	0
bin	0.0009	0
bin	0.00092	0
bin	0.00094	0
bin	0.00096	0
bin	0.00098	0
bin	0.001	0
scalar medium_network.sink.app[2] rxQPcp0Pk:count 1759
attr title "Received Packets, count"
attr unit packets
scalar medium_network.sink.app[2] rxQPcp0Bytes:sum(packetBytes) 1326774
attr interpolationmode none
attr title "Received Bytes, sum(packetBytes)"
attr unit B
statistic medium_network.sink.app[2] rxQPcp0Bytes:histogram(packetBytes)
field count 1759
field mean 754.27743035816
field stddev 424.9889235082
field min 64
field max 1519
field sum 1326774
field sqrsum 1318277882
attr interpolationmode none
attr title "Received Bytes, histogram(packetBytes)"
attr unit B
bin	-inf	0
bin	0	0
bin	20	0
bin	40	0
bin	60	80
bin	80	26
bin	100	18
bin	120	24
bin	140	17
bin	160	21
bin	180	33
bin	200	19
bin	220	21
bin	240	17
bin	260	28
bin	280	19
bin	300	21
bin	320	19
bin	340	29
bin	360	31
bin	380	25
bin	400	26
bin	420	25
bin	440	18
bin	460	36
bin	480	18
bin	500	28
bin	520	19
bin	540	21
bin	560	33
bin	580	28
bin	600	24
bin	620	31
bin	640	22
bin	660	33
bin	680	19
bin	700	28
bin	720	18
bin	740	23
bin	760	23
bin	780	26
bin	800	28
bin	820	17
bin	840	26
bin	860	20
bin	880	25
bin	900	34
bin	920	26
bin	940	23
bin	960	24
bin	980	20
bin	1000	26
bin	1020	19
bin	1040	19
bin	1060	24
bin	1080	24
bin	1100	27
bin	1120	21
bin	1140	29
bin	1160	18
bin	1180	25
bin	1200	17
bin	1220	21
bin	1240	27
bin	1260	9
bin	1280	29
bin	1300	13
bin	1320	13
bin	1340	26
bin	1360	27
bin	1380	27
bin	1400	28
bin	1420	18
bin	1440	17
bin	1460	24
bin	1480	20
bin	1500	21
bin	1520	0
bin	1540	0
bin	1560	0
bin	1580	0
bin	1600	0
bin	1620	0
bin	1640	0
bin	1660	0
bin	1680	0
bin	1700	0
bin	1720	0
bin	1740	0
bin	1760	0
bin	1780	0
bin	1800	0
bin	1820	0
bin	1840	0
bin	1860	0
scalar medium_network.sink.app[2] rxPk:count 1759
attr source rxPk
attr title "Received Packets, count"
attr unit packets
scalar medium_network.sink.app[2] rxBytes:sum(packetBytes) 1326774
attr interpolationmode none
attr source rxPk
attr title "Received Bytes, sum(packetBytes)"
attr unit B
statistic medium_network.sink.app[2] rxBytes:histogram(packetBytes)
field count 1759
field mean 754.27743035816
field stddev 424.9889235082
field min 64
field max 1519
field sum 1326774
field sqrsum 1318277882
attr interpolationmode none
attr source rxPk
attr title "Received Bytes, histogram(packetBytes)"
attr unit B
bin	-inf	0
bin	0	0
bin	20	0
bin	40	0
bin	60	80
bin	80	26
bin	100	18
bin	120	24
bin	140	17
bin	160	21
bin	180	33
bin	200	19
bin	220	21
bin	240	17
bin	260	28
bin	280	19
bin	300	21
bin	320	19
bin	340	29
bin	360	31
bin	380	25
bin	400	26
bin	420	25
bin	440	18
bin	460	36
bin	480	18
bin	500	28
bin	520	19
bin	540	21
bin	560	33
bin	580	28
bin	600	24
bin	620	31
bin	640	22
bin	660	33
bin	680	19
bin	700	28
bin	720	18
bin	740	23
bin	760	23
bin	780	26
bin	800	28
bin	820	17
bin	840	26
bin	860	20
bin	880	25
bin	900	34
bin	920	26
bin	940	23
bin	960	24
bin	980	20
bin	1000	26
bin	1020	19
bin	1040	19
bin	1060	24
bin	1080	24
bin	1100	27
bin	1120	21
bin	1140	29
bin	1160	18
bin	1180	25
bin	1200	17
bin	1220	21
bin	1240	27
bin	1260	9
bin	1280	29
bin	1300	13
bin	1320	13
bin	1340	26
bin	1360	27
bin	1380	27
bin	1400	28
bin	1420	18
bin	1440	17
bin	1460	24
bin	1480	20
bin	1500	21
bin	1520	0
bin	1540	0
bin	1560	0
bin	1580	0
bin	1600	0
bin	1620	0
bin	1640	0
bin	1660	0
bin	1680	0
bin	1700	0
bin	1720	0
bin	1740	0
bin	1760	0
bin	1780	0
bin	1800	0
bin	1820	0
bin	1840	0
bin	1860	0
statistic medium_network.sink.app[2] rxLatency:stats
field count 1759
field mean 0.0003291745704855
field stddev 0.00016966593235535
field min 2.343e-05
field max 0.000830053427
field sum 0.579018069484
field sqrsum 0.00024120474160807
attr interpolationmode none
attr source messageAge(rxPk)
attr title "End-to-end latency, stats"
attr unit s
statistic medium_network.sink.app[2] rxLatency:histogram
field count 1759
field mean 0.0003291745704855
field stddev 0.00016966593235535
field min 2.343e-05
field max 0.000830053427
field sum 0.579018069484
field sqrsum 0.00024120474160807
attr interpolationmode none
attr source messageAge(rxPk)
attr title "End-to-end latency, histogram"
attr unit s
bin	-inf	0
bin	0	0
bin	2e-05	43
bin	4e-05	27
bin	6e-05	36
bin	8e-05	48
bin	0.0001	45
bin	0.00012	56
bin	0.00014	73
bin	0.00016	64
bin	0.00018	70
bin	0.0002	51
bin	0.00022	77
bin	0.00024	68
bin	0.00026	68
bin	0.00028	85
bin	0.0003	79
bin	0.00032	73
bin	0.00034	81
bin	0.00036	75
bin	0.00038	65
bin	0.0004	55
bin	0.00042	41
bin	0.00044	67
bin	0.00046	40
bin	0.00048	50
bin	0.0005	43
bin	0.00052	45
bin	0.00054	43
bin	0.00056	31
bin	0.00058	32
bin	0.0006	35
bin	0.00062	30
bin	0.00064	13
bin	0.00066	9
bin	0.00068	20
bin	0.0007	10
bin	0.00072	5
bin	0.00074	3
bin	0.00076	0
bin	0.00078	1
bin	0.0008	1
bin	0.00082	1
bin	0.00084	0
bin	0.00086	0
bin	0.00088	0
bin	0.0009	0
bin	0.00092	0
bin	0.00094	0
bin	0.00096	0
bin	0.00098	0
bin	0.001	0
statistic medium_network.sink.app[2] rxLatencyInner:stats
field count 1759
field mean 0.0003291745704855
field stddev 0.00016966593235535
field min 2.343e-05
field max 0.000830053427
field sum 0.579018069484
field sqrsum 0.00024120474160807
attr interpolationmode none
attr source messageAge(innerMessage(rxPk))
attr title "End-to-end latency inner, stats"
attr unit s
statistic medium_network.sink.app[2] rxLatencyInner:histogram
field count 1759
field mean 0.0003291745704855
field stddev 0.00016966593235535
field min 2.343e-05
field max 0.000830053427
field sum 0.579018069484
field sqrsum 0.00024120474160807
attr interpolationmode none
attr source messageAge(innerMessage(rxPk))
attr title "End-to-end latency inner, histogram"
attr unit s
bin	-inf	0
bin	0	0
bin	2e-05	43
bin	4e-05	27
bin	6e-05	36
bin	8e-05	48
bin	0.0001	45
bin	0.00012	56
bin	0.00014	73
bin	0.00016	64
bin	0.00018	70
bin	0.0002	51
bin	0.00022	77
bin	0.00024	68
bin	0.00026	68
bin	0.00028	85
bin	0.0003	79
bin	0.00032	73
bin	0.00034	81
bin	0.00036	75
bin	0.00038	65
bin	0.0004	55
bin	0.00042	41
bin	0.00044	67
bin	0.00046	40
bin	0.00048	50
bin	0.0005	43
bin	0.00052	45
bin	0.00054	43
bin	0.00056	31
bin	0.00058	32
bin	0.0006	35
bin	0.00062	30
bin	0.00064	13
bin	0.00066	9
bin	0.00068	20
bin	0.0007	10
bin	0.00072	5
bin	0.00074	3
bin	0.00076	0
bin	0.00078	1
bin	0.0008	1
bin	0.00082	1
bin	0.00084	0
bin	0.00086	0
bin	0.00088	0
bin	0.0009	0
bin	0.00092	0
bin	0.00094	0
bin	0.00096	0
bin	0.00098	0
bin	0.001	0
scalar medium_network.sink.bgIn dropped:count 0
attr source dropped
attr title "Dropped frames, count"
attr unit packets
scalar medium_network.sink.bgIn rxPk:count 4086
attr source rxPk
attr title "Received Packets, count"
attr unit packets
scalar medium_network.sink.bgIn rxBytes:sum(packetBytes) 3408973
attr interpolationmode none
attr source rxPk
attr title "Received Bytes, sum(packetBytes)"
attr unit B
statistic medium_network.sink.bgIn rxBytes:histogram(packetBytes)
field count 4086
field mean 834.30567792462
field stddev 465.38301599969
field min 64
field max 1522
field sum 3408973
field sqrsum 3728860351
attr interpolationmode none
attr source rxPk
attr title "Received Bytes, histogram(packetBytes)"
attr unit B
bin	-inf	0
bin	0	0
bin	20	0
bin	40	0
bin	60	154
bin	80	50
bin	100	46
bin	120	48
bin	140	37
bin	160	54
bin	180	65
bin	200	42
bin	220	50
bin	240	40
bin	260	57
bin	280	38
bin	300	50
bin	320	52
bin	340	46
bin	360	59
bin	380	50
bin	400	51
bin	420	55
bin	440	40
bin	460	66
bin	480	52
bin	500	53
bin	520	48
bin	540	47
bin	560	58
bin	580	51
bin	600	49
bin	620	61
bin	640	47
bin	660	57
bin	680	45
bin	700	60
bin	720	39
bin	740	48
bin	760	49
bin	780	48
bin	800	59
bin	820	55
bin	840	43
bin	860	43
bin	880	45
bin	900	57
bin	920	51
bin	940	47
bin	960	53
bin	980	42
bin	1000	44
bin	1020	35
bin	1040	50
bin	1060	43
bin	1080	51
bin	1100	57
bin	1120	48
bin	1140	51
bin	1160	41
bin	1180	62
bin	1200	51
bin	1220	55
bin	1240	57
bin	1260	35
bin	1280	44
bin	1300	43
bin	1320	33
bin	1340	47
bin	1360	58
bin	1380	44
bin	1400	52
bin	1420	46
bin	1440	45
bin	1460	53
bin	1480	50
bin	1500	39
bin	1520	395
bin	1540	0
bin	1560	0
bin	1580	0
bin	1600	0
bin	1620	0
bin	1640	0
bin	1660	0
bin	1680	0
bin	1700	0
bin	1720	0
bin	1740	0
bin	1760	0
bin	1780	0
bin	1800	0
bin	1820	0
bin	1840	0
bin	1860	0
bin	1880	0
statistic medium_network.sink.bgIn rxLatency:stats
field count 4086
field mean 0.00030635488982868
field stddev 0.00016314358245385
field min 1.462e-05
field max 0.001542124985
field sum 1.25176607984
field sqrsum 0.00049221031888631
attr interpolationmode none
attr source messageAge(rxPk)
attr title "End-to-end latency (received), stats"
attr unit s
statistic medium_network.sink.bgIn rxLatency:histogram
field count 4086
field mean 0.00030635488982868
field stddev 0.00016314358245385
field min 1.462e-05
field max 0.001542124985
field sum 1.25176607984
field sqrsum 0.00049221031888631
attr interpolationmode none
attr source messageAge(rxPk)
attr title "End-to-end latency (received), histogram"
attr unit s
bin	-inf	0
bin	0	13
bin	2e-05	77
bin	4e-05	64
bin	6e-05	95
bin	8e-05	114
bin	0.0001	112
bin	0.00012	142
bin	0.00014	154
bin	0.00016	152
bin	0.00018	167
bin	0.0002	156
bin	0.00022	179
bin	0.00024	546
bin	0.00026	162
bin	0.00028	173
bin	0.0003	165
bin	0.00032	133
bin	0.00034	150
bin	0.00036	134
bin	0.00038	114
bin	0.0004	101
bin	0.00042	86
bin	0.00044	126
bin	0.00046	81
bin	0.00048	90
bin	0.0005	82
bin	0.00052	83
bin	0.00054	70
bin	0.00056	72
bin	0.00058	58
bin	0.0006	50
bin	0.00062	52
bin	0.00064	32
bin	0.00066	30
bin	0.00068	26
bin	0.0007	21
bin	0.00072	10
bin	0.00074	7
bin	0.00076	1
bin	0.00078	1
bin	0.0008	2
bin	0.00082	1
bin	0.00084	0
bin	0.00086	0
bin	0.00088	0
bin	0.0009	1
bin	0.00092	0
bin	0.00094	0
bin	0.00096	0
bin	0.00098	0
bin	0.001	0
bin	0.00102	0
bin	0.00104	0
bin	0.00106	0
bin	0.00108	0
bin	0.0011	0
bin	0.00112	0
bin	0.00114	0
bin	0.00116	0
bin	0.00118	0
bin	0.0012	0
bin	0.00122	0
bin	0.00124	0
bin	0.00126	0
bin	0.00128	0
bin	0.0013	0
bin	0.00132	0
bin	0.00134	0
bin	0.00136	0
bin	0.00138	0
bin	0.0014	0
bin	0.00142	0
bin	0.00144	0
bin	0.00146	0
bin	0.00148	0
bin	0.0015	0
bin	0.00152	0
bin	0.00154	1
bin	0.00156	0
bin	0.00158	0
bin	0.0016	0
bin	0.00162	0
bin	0.00164	0
bin	0.00166	0
bin	0.00168	0
bin	0.0017	0
bin	0.00172	0
bin	0.00174	0
bin	0.00176	0
bin	0.00178	0
bin	0.0018	0
bin	0.00182	0
bin	0.00184	0
bin	0.00186	0
bin	0.00188	0
bin	0.0019	0
bin	0.00192	0
bin	0.00194	0
scalar medium_network.sink.bgIn txPk:count 4086
attr source txPk
attr title "Transmitted Packets, count"
attr unit packets
scalar medium_network.sink.bgIn txBytes:sum(packetBytes) 3408973
attr interpolationmode none
attr source txPk
attr title "Transmitted Bytes, sum(packetBytes)"
attr unit B
statistic medium_network.sink.bgIn txBytes:histogram(packetBytes)
field count 4086
field mean 834.30567792462
field stddev 465.38301599969
field min 64
field max 1522
field sum 3408973
field sqrsum 3728860351
attr interpolationmode none
attr source txPk
attr title "Transmitted Bytes, histogram(packetBytes)"
attr unit B
bin	-inf	0
bin	0	0
bin	20	0
bin	40	0
bin	60	154
bin	80	50
bin	100	46
bin	120	48
bin	140	37
bin	160	54
bin	180	65
bin	200	42
bin	220	50
bin	240	40
bin	260	57
bin	280	38
bin	300	50
bin	320	52
bin	340	46
bin	360	59
bin	380	50
bin	400	51
bin	420	55
bin	440	40
bin	460	66
bin	480	52
bin	500	53
bin	520	48
bin	540	47
bin	560	58
bin	580	51
bin	600	49
bin	620	61
bin	640	47
bin	660	57
bin	680	45
bin	700	60
bin	720	39
bin	740	48
bin	760	49
bin	780	48
bin	800	59
bin	820	55
bin	840	43
bin	860	43
bin	880	45
bin	900	57
bin	920	51
bin	940	47
bin	960	53
bin	980	42
bin	1000	44
bin	1020	35
bin	1040	50
bin	1060	43
bin	1080	51
bin	1100	57
bin	1120	48
bin	1140	51
bin	1160	41
bin	1180	62
bin	1200	51
bin	1220	55
bin	1240	57
bin	1260	35
bin	1280	44
bin	1300	43
bin	1320	33
bin	1340	47
bin	1360	58
bin	1380	44
bin	1400	52
bin	1420	46
bin	1440	45
bin	1460	53
bin	1480	50
bin	1500	39
bin	1520	395
bin	1540	0
bin	1560	0
bin	1580	0
bin	1600	0
bin	1620	0
bin	1640	0
bin	1660	0
bin	1680	0
bin	1700	0
bin	1720	0
bin	1740	0
bin	1760	0
bin	1780	0
bin	1800	0
bin	1820	0
bin	1840	0
bin	1860	0
bin	1880	0
statistic medium_network.sink.bgIn txLatency:stats
field count 4086
field mean 0.00030635488982868
field stddev 0.00016314358245385
field min 1.462e-05
field max 0.001542124985
field sum 1.25176607984
field sqrsum 0.00049221031888631
attr interpolationmode none
attr source messageAge(txPk)
attr title "End-to-end latency (transmitted), stats"
attr unit s
statistic medium_network.sink.bgIn txLatency:histogram
field count 4086
field mean 0.00030635488982868
field stddev 0.00016314358245385
field min 1.462e-05
field max 0.001542124985
field sum 1.25176607984
field sqrsum 0.00049221031888631
attr interpolationmode none
attr source messageAge(txPk)
attr title "End-to-end latency (transmitted), histogram"
attr unit s
bin	-inf	0
bin	0	13
bin	2e-05	77
bin	4e-05	64
bin	6e-05	95
bin	8e-05	114
bin	0.0001	112
bin	0.00012	142
bin	0.00014	154
bin	0.00016	152
bin	0.00018	167
bin	0.0002	156
bin	0.00022	179
bin	0.00024	546
bin	0.00026	162
bin	0.00028	173
bin	0.0003	165
bin	0.00032	133
bin	0.00034	150
bin	0.00036	134
bin	0.00038	114
bin	0.0004	101
bin	0.00042	86
bin	0.00044	126
bin	0.00046	81
bin	0.00048	90
bin	0.0005	82
bin	0.00052	83
bin	0.00054	70
bin	0.00056	72
bin	0.00058	58
bin	0.0006	50
bin	0.00062	52
bin	0.00064	32
bin	0.00066	30
bin	0.00068	26
bin	0.0007	21
bin	0.00072	10
bin	0.00074	7
bin	0.00076	1
bin	0.00078	1
bin	0.0008	2
bin	0.00082	1
bin	0.00084	0
bin	0.00086	0
bin	0.00088	0
bin	0.0009	1
bin	0.00092	0
bin	0.00094	0
bin	0.00096	0
bin	0.00098	0
bin	0.001	0
bin	0.00102	0
bin	0.00104	0
bin	0.00106	0
bin	0.00108	0
bin	0.0011	0
bin	0.00112	0
bin	0.00114	0
bin	0.00116	0
bin	0.00118	0
bin	0.0012	0
bin	0.00122	0
bin	0.00124	0
bin	0.00126	0
bin	0.00128	0
bin	0.0013	0
bin	0.00132	0
bin	0.00134	0
bin	0.00136	0
bin	0.00138	0
bin	0.0014	0
bin	0.00142	0
bin	0.00144	0
bin	0.00146	0
bin	0.00148	0
bin	0.0015	0
bin	0.00152	0
bin	0.00154	1
bin	0.00156	0
bin	0.00158	0
bin	0.0016	0
bin	0.00162	0
bin	0.00164	0
bin	0.00166	0
bin	0.00168	0
bin	0.0017	0
bin	0.00172	0
bin	0.00174	0
bin	0.00176	0
bin	0.00178	0
bin	0.0018	0
bin	0.00182	0
bin	0.00184	0
bin	0.00186	0
bin	0.00188	0
bin	0.0019	0
bin	0.00192	0
bin	0.00194	0
scalar medium_network.sink.bgOut dropped:count 0
attr source dropped
attr title "Dropped frames, count"
attr unit packets
scalar medium_network.sink.bgOut rxPk:count 0
attr source rxPk
attr title "Received Packets, count"
attr unit packets
scalar medium_network.sink.bgOut rxBytes:sum(packetBytes) 0
attr interpolationmode none
attr source rxPk
attr title "Received Bytes, sum(packetBytes)"
attr unit B
statistic medium_network.sink.bgOut rxBytes:histogram(packetBytes)
field count 0
field mean -nan
field stddev -nan
field min -nan
field max -nan
field sum 0
field sqrsum 0
attr interpolationmode none
attr source rxPk
attr title "Received Bytes, histogram(packetBytes)"
attr unit B
bin	-inf	0
bin	0	0
bin	1	0
statistic medium_network.sink.bgOut rxLatency:stats
field count 0
field mean -nan
field stddev -nan
field min -nan
field max -nan
field sum 0
field sqrsum 0
attr interpolationmode none
attr source messageAge(rxPk)
attr title "End-to-end latency (received), stats"
attr unit s
statistic medium_network.sink.bgOut rxLatency:histogram
field count 0
field mean -nan
field stddev -nan
field min -nan
field max -nan
field sum 0
field sqrsum 0
attr interpolationmode none
attr source messageAge(rxPk)
attr title "End-to-end latency (received), histogram"
attr unit s
bin	-inf	0
bin	0	0
bin	1	0
scalar medium_network.sink.bgOut txPk:count 0
attr source txPk
attr title "Transmitted Packets, count"
attr unit packets
scalar medium_network.sink.bgOut txBytes:sum(packetBytes) 0
attr interpolationmode none
attr source txPk
attr title "Transmitted Bytes, sum(packetBytes)"
attr unit B
statistic medium_network.sink.bgOut txBytes:histogram(packetBytes)
field count 0
field mean -nan
field stddev -nan
field min -nan
field max -nan
field sum 0
field sqrsum 0
attr interpolationmode none
attr source txPk
attr title "Transmitted Bytes, histogram(packetBytes)"
attr unit B
bin	-inf	0
bin	0	0
bin	1	0
statistic medium_network.sink.bgOut txLatency:stats
field count 0
field mean -nan
field stddev -nan
field min -nan
field max -nan
field sum 0
field sqrsum 0
attr interpolationmode none
attr source messageAge(txPk)
attr title "End-to-end latency (transmitted), stats"
attr unit s
statistic medium_network.sink.bgOut txLatency:histogram
field count 0
field mean -nan
field stddev -nan
field min -nan
field max -nan
field sum 0
field sqrsum 0
attr interpolationmode none
attr source messageAge(txPk)
attr title "End-to-end latency (transmitted), histogram"
attr unit s
bin	-inf	0
bin	0	0
bin	1	0

