file 33520349 1648589053                                        
version 2
run General-0-20220329-23:23:04-3204
attr configname General
attr datetime 20220329-23:23:04
attr experiment General
attr inifile omnetpp.ini
attr iterationvars ""
attr iterationvarsf ""
attr measurement ""
attr network small_network_ofnc_flowmod
attr processid 3204
attr repetition 0
attr replication #0
attr resultdir results
attr runnumber 0
attr seedset 0
param **.scheduler.tick 80ns
param **.scheduler.numPeriods 1
param **.scheduler.period[0].cycle_ticks sec_to_tick(500us)
param **.scheduler.oscillator.max_drift 200ppm
param **.scheduler.oscillator.drift_change uniform(-50ppm,50ppm)
param **.precission 500ns
param **.pcpSRClassA 7
param **.pcpSRClassB 6
param **.gateControlList.period "\"period[0]\""
param **.node1.phy[*].mac.address "\"0A-00-00-00-00-01\""
param **.node1.numApps 2
param **.node1.phy[*].taggedVIDs "\"0,1,2\""
param **.node1.phy[*].shaper.gateControlList.controlList "\"C,C,C,C,C,C,C,C:0;C,C,C,C,C,C,C,o:0.00015;o,o,o,o,o,o,o,C:0.0003\""
param **.node1.app[0].typename "\"IEEE8021QTrafficSourceApp\""
param **.node1.app[0].destAddress "\"0A-00-00-00-00-02\""
param **.node1.app[0].payload "intWithUnit(uniform(1500Byte, 1500Byte))"
param **.node1.app[0].sendInterval 500us
param **.node1.app[0].priority 7
param **.node1.app[0].vid 1
param **.node1.app[0].startTime 10ms
param **.node1.app[1].typename "\"BGTrafficSourceApp\""
param **.node1.app[1].destAddress "\"0A-00-00-00-00-02\""
param **.node1.app[1].payload "intWithUnit(uniform(1500Byte, 1500Byte))"
param **.node1.app[1].sendInterval 5ms
param **.node2.phy[*].mac.address "\"0A-00-00-00-00-02\""
param **.node2.phy[*].taggedVIDs "\"0,1,2\""
param **.node2.numApps 2
param **.node2.phy[*].shaper.gateControlList.controlList "\"o,o,o,o,o,o,o,o:0\""
param **.node2.app[0].typename "\"IEEE8021QTrafficSinkApp\""
param **.node2.app[0].srcAddress "\"0A-00-00-00-00-01\""
param **.node2.app[1].typename "\"BGTrafficSinkApp\""
param **.node2.app[1].srcAddress "\"0A-00-00-00-00-01\""
param **.node2.bgIn.destination_gates "\"app[0].in, app[1].in\""
param small_network_ofnc_nwtu.node3.phy[*].mac.address "\"0A-00-00-00-00-03\""
param small_network_ofnc_nwtu.node3.phy[*].taggedVIDs "\"0,1,2\""
param small_network_ofnc_nwtu.node3.phy[*].shaper.gateControlList.controlList "\"o,o,o,o,o,o,o,o:0\""
param small_network_ofnc_nwtu.node3.numApps 1
param small_network_ofnc_nwtu.node3.app[0].typename "\"BGTrafficSinkApp\""
param small_network_ofnc_nwtu.node3.app[0].srcAddress "\"0A-00-00-00-00-01\""
param small_network_ofnc_nwtu.node3.bgIn.destination_gates "\"app[0].in\""
param **.switch2.eth[*].mac.address "\"0A-00-00-00-00-C2\""
param **.switch2.etherMAC[0].untaggedVID 0
param **.switch2.etherMAC[0].taggedVIDs "\"0,1,2\""
param **.switch2.etherMAC[1].untaggedVID 0
param **.switch2.etherMAC[1].taggedVIDs "\"0,1,2\""
param **.switch2.etherMAC[2].untaggedVID 0
param **.switch2.etherMAC[2].taggedVIDs "\"0,1,2\""
param **.switch2.switchAgent.connectAddress "\"controller\""
param **.switch2.switchAgent.connectAt 0s
param **.switch2.switchAgent.bufferCapacity 3712
param **.switch2.of_service_time 3.5us
param **.switch2.hardware_delay 3.5us
param **.switch2.etherMAC[*].shaper.transmissionSelectionAlgorithm[6].typename "\"CreditBasedShaper\""
param **.switch2.etherMAC[*].shaper.transmissionSelectionAlgorithm[6].srClass "\"B\""
param **.switch2.etherMAC[*].shaper.gateControlList.controlList "\"C,C,C,C,C,C,C,o:0;o,o,o,o,o,o,o,C:0.00005;C,C,C,C,C,C,C,C:0.00025;C,C,C,C,C,C,C,o:0.0004\""
param **.switch1.eth[*].mac.address "\"0A-00-00-00-00-C1\""
param **.switch1.etherMAC[0].untaggedVID 0
param **.switch1.etherMAC[0].taggedVIDs "\"0,1,2\""
param **.switch1.etherMAC[1].untaggedVID 0
param **.switch1.etherMAC[1].taggedVIDs "\"0,1,2\""
param **.switch1.switchAgent.connectAddress "\"controller\""
param **.switch1.switchAgent.connectAt 0s
param **.switch1.switchAgent.bufferCapacity 3712
param **.switch1.of_service_time 3.5us
param **.switch1.hardware_delay 3.5us
param **.switch1.etherMAC[*].shaper.transmissionSelectionAlgorithm[6].typename "\"CreditBasedShaper\""
param **.switch1.etherMAC[*].shaper.transmissionSelectionAlgorithm[6].srClass "\"B\""
param **.switch1.etherMAC[*].shaper.gateControlList.controlList "\"o,o,o,o,o,o,o,C:0;C,C,C,C,C,C,C,C:0.000125;C,C,C,C,C,C,C,o:0.00025;o,o,o,o,o,o,o,C:0.000375\""
param **.controller.serviceTime 500ns
param **.controller.numControllerApps 1
param **.controller.controllerApps[0].typename "\"AVBLearningControllerApp\""
param **.controller.controllerApps[0].configXML "xmldoc(\"controllerconfig.xml\")"
param **.controller.numNetConfApps 1
param **.controller.netconf.netConfApps[0].typename "\"NetConfApplicationBase\""
param **.controller.netconf.netConfApps[0].serverConnections "xmldoc(\"netconf_of_example_config.xml\")"

vector 0 small_network_ofnc_flowmod.controller.ethg$o[0].channel busy:vector ETV
attr interpolationmode sample-hold
attr source channelBusy
vector 1 small_network_ofnc_flowmod.ethswitch.ethg$o[0].channel busy:vector ETV
attr interpolationmode sample-hold
attr source channelBusy
vector 2 small_network_ofnc_flowmod.ethswitch.ethg$o[1].channel busy:vector ETV
attr interpolationmode sample-hold
attr source channelBusy
vector 3 small_network_ofnc_flowmod.ethswitch.ethg$o[2].channel busy:vector ETV
attr interpolationmode sample-hold
attr source channelBusy
vector 4 small_network_ofnc_flowmod.switch1.gateControlPlane$o.channel busy:vector ETV
attr interpolationmode sample-hold
attr source channelBusy
vector 5 small_network_ofnc_flowmod.switch1.gateDataPlane$o[0].channel busy:vector ETV
attr interpolationmode sample-hold
attr source channelBusy
vector 6 small_network_ofnc_flowmod.switch1.gateDataPlane$o[1].channel busy:vector ETV
attr interpolationmode sample-hold
attr source channelBusy
vector 7 small_network_ofnc_flowmod.switch2.gateControlPlane$o.channel busy:vector ETV
attr interpolationmode sample-hold
attr source channelBusy
vector 8 small_network_ofnc_flowmod.switch2.gateDataPlane$o[0].channel busy:vector ETV
attr interpolationmode sample-hold
attr source channelBusy
vector 9 small_network_ofnc_flowmod.switch2.gateDataPlane$o[1].channel busy:vector ETV
attr interpolationmode sample-hold
attr source channelBusy
vector 10 small_network_ofnc_flowmod.switch2.gateDataPlane$o[2].channel busy:vector ETV
attr interpolationmode sample-hold
attr source channelBusy
vector 11 small_network_ofnc_flowmod.node1.ethg$o.channel busy:vector ETV
attr interpolationmode sample-hold
attr source channelBusy
vector 12 small_network_ofnc_flowmod.node2.ethg$o.channel busy:vector ETV
attr interpolationmode sample-hold
attr source channelBusy
vector 13 small_network_ofnc_flowmod.node3.ethg$o.channel busy:vector ETV
attr interpolationmode sample-hold
attr source channelBusy
vector 14 small_network_ofnc_flowmod.switch1.eth[0].shaper.transmissionSelection qPcp0Bytes:vector(packetBytes) ETV
attr interpolationmode none
attr title "Received Bytes, vector(packetBytes)"
attr unit B
vector 15 small_network_ofnc_flowmod.switch1.eth[0].shaper.transmissionSelection qPcp0Bytes:floatingIntervalSumVector(packetBytes) ETV
vector 16 small_network_ofnc_flowmod.switch1.eth[0].shaper.transmissionSelection qPcp0Latency:vector ETV
attr interpolationmode none
attr title "End-to-end latency, vector"
attr unit s
vector 17 small_network_ofnc_flowmod.switch1.eth[0].shaper.transmissionSelection qPcp1Bytes:vector(packetBytes) ETV
attr interpolationmode none
attr title "Received Bytes, vector(packetBytes)"
attr unit B
vector 18 small_network_ofnc_flowmod.switch1.eth[0].shaper.transmissionSelection qPcp1Bytes:floatingIntervalSumVector(packetBytes) ETV
vector 19 small_network_ofnc_flowmod.switch1.eth[0].shaper.transmissionSelection qPcp1Latency:vector ETV
attr interpolationmode none
attr title "End-to-end latency, vector"
attr unit s
vector 20 small_network_ofnc_flowmod.switch1.eth[0].shaper.transmissionSelection qPcp2Bytes:vector(packetBytes) ETV
attr interpolationmode none
attr title "Received Bytes, vector(packetBytes)"
attr unit B
vector 21 small_network_ofnc_flowmod.switch1.eth[0].shaper.transmissionSelection qPcp2Bytes:floatingIntervalSumVector(packetBytes) ETV
vector 22 small_network_ofnc_flowmod.switch1.eth[0].shaper.transmissionSelection qPcp2Latency:vector ETV
attr interpolationmode none
attr title "End-to-end latency, vector"
attr unit s
vector 23 small_network_ofnc_flowmod.switch1.eth[0].shaper.transmissionSelection qPcp3Bytes:vector(packetBytes) ETV
attr interpolationmode none
attr title "Received Bytes, vector(packetBytes)"
attr unit B
vector 24 small_network_ofnc_flowmod.switch1.eth[0].shaper.transmissionSelection qPcp3Bytes:floatingIntervalSumVector(packetBytes) ETV
vector 25 small_network_ofnc_flowmod.switch1.eth[0].shaper.transmissionSelection qPcp3Latency:vector ETV
attr interpolationmode none
attr title "End-to-end latency, vector"
attr unit s
vector 26 small_network_ofnc_flowmod.switch1.eth[0].shaper.transmissionSelection qPcp4Bytes:vector(packetBytes) ETV
attr interpolationmode none
attr title "Received Bytes, vector(packetBytes)"
attr unit B
vector 27 small_network_ofnc_flowmod.switch1.eth[0].shaper.transmissionSelection qPcp4Bytes:floatingIntervalSumVector(packetBytes) ETV
vector 28 small_network_ofnc_flowmod.switch1.eth[0].shaper.transmissionSelection qPcp4Latency:vector ETV
attr interpolationmode none
attr title "End-to-end latency, vector"
attr unit s
vector 29 small_network_ofnc_flowmod.switch1.eth[0].shaper.transmissionSelection qPcp5Bytes:vector(packetBytes) ETV
attr interpolationmode none
attr title "Received Bytes, vector(packetBytes)"
attr unit B
vector 30 small_network_ofnc_flowmod.switch1.eth[0].shaper.transmissionSelection qPcp5Bytes:floatingIntervalSumVector(packetBytes) ETV
vector 31 small_network_ofnc_flowmod.switch1.eth[0].shaper.transmissionSelection qPcp5Latency:vector ETV
attr interpolationmode none
attr title "End-to-end latency, vector"
attr unit s
vector 32 small_network_ofnc_flowmod.switch1.eth[0].shaper.transmissionSelection qPcp6Bytes:vector(packetBytes) ETV
attr interpolationmode none
attr title "Received Bytes, vector(packetBytes)"
attr unit B
vector 33 small_network_ofnc_flowmod.switch1.eth[0].shaper.transmissionSelection qPcp6Bytes:floatingIntervalSumVector(packetBytes) ETV
vector 34 small_network_ofnc_flowmod.switch1.eth[0].shaper.transmissionSelection qPcp6Latency:vector ETV
attr interpolationmode none
attr title "End-to-end latency, vector"
attr unit s
vector 35 small_network_ofnc_flowmod.switch1.eth[0].shaper.transmissionSelection qPcp7Bytes:vector(packetBytes) ETV
attr interpolationmode none
attr title "Received Bytes, vector(packetBytes)"
attr unit B
vector 36 small_network_ofnc_flowmod.switch1.eth[0].shaper.transmissionSelection qPcp7Bytes:floatingIntervalSumVector(packetBytes) ETV
vector 37 small_network_ofnc_flowmod.switch1.eth[0].shaper.transmissionSelection qPcp7Latency:vector ETV
attr interpolationmode none
attr title "End-to-end latency, vector"
attr unit s
vector 38 small_network_ofnc_flowmod.switch1.etherMAC[0].shaper.transmissionSelection qPcp0Bytes:vector(packetBytes) ETV
attr interpolationmode none
attr title "Received Bytes, vector(packetBytes)"
attr unit B
vector 39 small_network_ofnc_flowmod.switch1.etherMAC[0].shaper.transmissionSelection qPcp0Bytes:floatingIntervalSumVector(packetBytes) ETV
vector 40 small_network_ofnc_flowmod.switch1.etherMAC[0].shaper.transmissionSelection qPcp0Latency:vector ETV
attr interpolationmode none
attr title "End-to-end latency, vector"
attr unit s
vector 41 small_network_ofnc_flowmod.switch1.etherMAC[0].shaper.transmissionSelection qPcp1Bytes:vector(packetBytes) ETV
attr interpolationmode none
attr title "Received Bytes, vector(packetBytes)"
attr unit B
vector 42 small_network_ofnc_flowmod.switch1.etherMAC[0].shaper.transmissionSelection qPcp1Bytes:floatingIntervalSumVector(packetBytes) ETV
vector 43 small_network_ofnc_flowmod.switch1.etherMAC[0].shaper.transmissionSelection qPcp1Latency:vector ETV
attr interpolationmode none
attr title "End-to-end latency, vector"
attr unit s
vector 44 small_network_ofnc_flowmod.switch1.etherMAC[0].shaper.transmissionSelection qPcp2Bytes:vector(packetBytes) ETV
attr interpolationmode none
attr title "Received Bytes, vector(packetBytes)"
attr unit B
vector 45 small_network_ofnc_flowmod.switch1.etherMAC[0].shaper.transmissionSelection qPcp2Bytes:floatingIntervalSumVector(packetBytes) ETV
vector 46 small_network_ofnc_flowmod.switch1.etherMAC[0].shaper.transmissionSelection qPcp2Latency:vector ETV
attr interpolationmode none
attr title "End-to-end latency, vector"
attr unit s
vector 47 small_network_ofnc_flowmod.switch1.etherMAC[0].shaper.transmissionSelection qPcp3Bytes:vector(packetBytes) ETV
attr interpolationmode none
attr title "Received Bytes, vector(packetBytes)"
attr unit B
vector 48 small_network_ofnc_flowmod.switch1.etherMAC[0].shaper.transmissionSelection qPcp3Bytes:floatingIntervalSumVector(packetBytes) ETV
vector 49 small_network_ofnc_flowmod.switch1.etherMAC[0].shaper.transmissionSelection qPcp3Latency:vector ETV
attr interpolationmode none
attr title "End-to-end latency, vector"
attr unit s
vector 50 small_network_ofnc_flowmod.switch1.etherMAC[0].shaper.transmissionSelection qPcp4Bytes:vector(packetBytes) ETV
attr interpolationmode none
attr title "Received Bytes, vector(packetBytes)"
attr unit B
vector 51 small_network_ofnc_flowmod.switch1.etherMAC[0].shaper.transmissionSelection qPcp4Bytes:floatingIntervalSumVector(packetBytes) ETV
vector 52 small_network_ofnc_flowmod.switch1.etherMAC[0].shaper.transmissionSelection qPcp4Latency:vector ETV
attr interpolationmode none
attr title "End-to-end latency, vector"
attr unit s
vector 53 small_network_ofnc_flowmod.switch1.etherMAC[0].shaper.transmissionSelection qPcp5Bytes:vector(packetBytes) ETV
attr interpolationmode none
attr title "Received Bytes, vector(packetBytes)"
attr unit B
vector 54 small_network_ofnc_flowmod.switch1.etherMAC[0].shaper.transmissionSelection qPcp5Bytes:floatingIntervalSumVector(packetBytes) ETV
vector 55 small_network_ofnc_flowmod.switch1.etherMAC[0].shaper.transmissionSelection qPcp5Latency:vector ETV
attr interpolationmode none
attr title "End-to-end latency, vector"
attr unit s
vector 56 small_network_ofnc_flowmod.switch1.etherMAC[0].shaper.transmissionSelection qPcp6Bytes:vector(packetBytes) ETV
attr interpolationmode none
attr title "Received Bytes, vector(packetBytes)"
attr unit B
vector 57 small_network_ofnc_flowmod.switch1.etherMAC[0].shaper.transmissionSelection qPcp6Bytes:floatingIntervalSumVector(packetBytes) ETV
vector 58 small_network_ofnc_flowmod.switch1.etherMAC[0].shaper.transmissionSelection qPcp6Latency:vector ETV
attr interpolationmode none
attr title "End-to-end latency, vector"
attr unit s
vector 59 small_network_ofnc_flowmod.switch1.etherMAC[0].shaper.transmissionSelection qPcp7Bytes:vector(packetBytes) ETV
attr interpolationmode none
attr title "Received Bytes, vector(packetBytes)"
attr unit B
vector 60 small_network_ofnc_flowmod.switch1.etherMAC[0].shaper.transmissionSelection qPcp7Bytes:floatingIntervalSumVector(packetBytes) ETV
vector 61 small_network_ofnc_flowmod.switch1.etherMAC[0].shaper.transmissionSelection qPcp7Latency:vector ETV
attr interpolationmode none
attr title "End-to-end latency, vector"
attr unit s
vector 62 small_network_ofnc_flowmod.switch1.etherMAC[1].shaper.transmissionSelection qPcp0Bytes:vector(packetBytes) ETV
attr interpolationmode none
attr title "Received Bytes, vector(packetBytes)"
attr unit B
vector 63 small_network_ofnc_flowmod.switch1.etherMAC[1].shaper.transmissionSelection qPcp0Bytes:floatingIntervalSumVector(packetBytes) ETV
vector 64 small_network_ofnc_flowmod.switch1.etherMAC[1].shaper.transmissionSelection qPcp0Latency:vector ETV
attr interpolationmode none
attr title "End-to-end latency, vector"
attr unit s
vector 65 small_network_ofnc_flowmod.switch1.etherMAC[1].shaper.transmissionSelection qPcp1Bytes:vector(packetBytes) ETV
attr interpolationmode none
attr title "Received Bytes, vector(packetBytes)"
attr unit B
vector 66 small_network_ofnc_flowmod.switch1.etherMAC[1].shaper.transmissionSelection qPcp1Bytes:floatingIntervalSumVector(packetBytes) ETV
vector 67 small_network_ofnc_flowmod.switch1.etherMAC[1].shaper.transmissionSelection qPcp1Latency:vector ETV
attr interpolationmode none
attr title "End-to-end latency, vector"
attr unit s
vector 68 small_network_ofnc_flowmod.switch1.etherMAC[1].shaper.transmissionSelection qPcp2Bytes:vector(packetBytes) ETV
attr interpolationmode none
attr title "Received Bytes, vector(packetBytes)"
attr unit B
vector 69 small_network_ofnc_flowmod.switch1.etherMAC[1].shaper.transmissionSelection qPcp2Bytes:floatingIntervalSumVector(packetBytes) ETV
vector 70 small_network_ofnc_flowmod.switch1.etherMAC[1].shaper.transmissionSelection qPcp2Latency:vector ETV
attr interpolationmode none
attr title "End-to-end latency, vector"
attr unit s
vector 71 small_network_ofnc_flowmod.switch1.etherMAC[1].shaper.transmissionSelection qPcp3Bytes:vector(packetBytes) ETV
attr interpolationmode none
attr title "Received Bytes, vector(packetBytes)"
attr unit B
vector 72 small_network_ofnc_flowmod.switch1.etherMAC[1].shaper.transmissionSelection qPcp3Bytes:floatingIntervalSumVector(packetBytes) ETV
vector 73 small_network_ofnc_flowmod.switch1.etherMAC[1].shaper.transmissionSelection qPcp3Latency:vector ETV
attr interpolationmode none
attr title "End-to-end latency, vector"
attr unit s
vector 74 small_network_ofnc_flowmod.switch1.etherMAC[1].shaper.transmissionSelection qPcp4Bytes:vector(packetBytes) ETV
attr interpolationmode none
attr title "Received Bytes, vector(packetBytes)"
attr unit B
vector 75 small_network_ofnc_flowmod.switch1.etherMAC[1].shaper.transmissionSelection qPcp4Bytes:floatingIntervalSumVector(packetBytes) ETV
vector 76 small_network_ofnc_flowmod.switch1.etherMAC[1].shaper.transmissionSelection qPcp4Latency:vector ETV
attr interpolationmode none
attr title "End-to-end latency, vector"
attr unit s
vector 77 small_network_ofnc_flowmod.switch1.etherMAC[1].shaper.transmissionSelection qPcp5Bytes:vector(packetBytes) ETV
attr interpolationmode none
attr title "Received Bytes, vector(packetBytes)"
attr unit B
vector 78 small_network_ofnc_flowmod.switch1.etherMAC[1].shaper.transmissionSelection qPcp5Bytes:floatingIntervalSumVector(packetBytes) ETV
vector 79 small_network_ofnc_flowmod.switch1.etherMAC[1].shaper.transmissionSelection qPcp5Latency:vector ETV
attr interpolationmode none
attr title "End-to-end latency, vector"
attr unit s
vector 80 small_network_ofnc_flowmod.switch1.etherMAC[1].shaper.transmissionSelection qPcp6Bytes:vector(packetBytes) ETV
attr interpolationmode none
attr title "Received Bytes, vector(packetBytes)"
attr unit B
vector 81 small_network_ofnc_flowmod.switch1.etherMAC[1].shaper.transmissionSelection qPcp6Bytes:floatingIntervalSumVector(packetBytes) ETV
vector 82 small_network_ofnc_flowmod.switch1.etherMAC[1].shaper.transmissionSelection qPcp6Latency:vector ETV
attr interpolationmode none
attr title "End-to-end latency, vector"
attr unit s
vector 83 small_network_ofnc_flowmod.switch1.etherMAC[1].shaper.transmissionSelection qPcp7Bytes:vector(packetBytes) ETV
attr interpolationmode none
attr title "Received Bytes, vector(packetBytes)"
attr unit B
vector 84 small_network_ofnc_flowmod.switch1.etherMAC[1].shaper.transmissionSelection qPcp7Bytes:floatingIntervalSumVector(packetBytes) ETV
vector 85 small_network_ofnc_flowmod.switch1.etherMAC[1].shaper.transmissionSelection qPcp7Latency:vector ETV
attr interpolationmode none
attr title "End-to-end latency, vector"
attr unit s
vector 86 small_network_ofnc_flowmod.switch2.eth[0].shaper.transmissionSelection qPcp0Bytes:vector(packetBytes) ETV
attr interpolationmode none
attr title "Received Bytes, vector(packetBytes)"
attr unit B
vector 87 small_network_ofnc_flowmod.switch2.eth[0].shaper.transmissionSelection qPcp0Bytes:floatingIntervalSumVector(packetBytes) ETV
vector 88 small_network_ofnc_flowmod.switch2.eth[0].shaper.transmissionSelection qPcp0Latency:vector ETV
attr interpolationmode none
attr title "End-to-end latency, vector"
attr unit s
vector 89 small_network_ofnc_flowmod.switch2.eth[0].shaper.transmissionSelection qPcp1Bytes:vector(packetBytes) ETV
attr interpolationmode none
attr title "Received Bytes, vector(packetBytes)"
attr unit B
vector 90 small_network_ofnc_flowmod.switch2.eth[0].shaper.transmissionSelection qPcp1Bytes:floatingIntervalSumVector(packetBytes) ETV
vector 91 small_network_ofnc_flowmod.switch2.eth[0].shaper.transmissionSelection qPcp1Latency:vector ETV
attr interpolationmode none
attr title "End-to-end latency, vector"
attr unit s
vector 92 small_network_ofnc_flowmod.switch2.eth[0].shaper.transmissionSelection qPcp2Bytes:vector(packetBytes) ETV
attr interpolationmode none
attr title "Received Bytes, vector(packetBytes)"
attr unit B
vector 93 small_network_ofnc_flowmod.switch2.eth[0].shaper.transmissionSelection qPcp2Bytes:floatingIntervalSumVector(packetBytes) ETV
vector 94 small_network_ofnc_flowmod.switch2.eth[0].shaper.transmissionSelection qPcp2Latency:vector ETV
attr interpolationmode none
attr title "End-to-end latency, vector"
attr unit s
vector 95 small_network_ofnc_flowmod.switch2.eth[0].shaper.transmissionSelection qPcp3Bytes:vector(packetBytes) ETV
attr interpolationmode none
attr title "Received Bytes, vector(packetBytes)"
attr unit B
vector 96 small_network_ofnc_flowmod.switch2.eth[0].shaper.transmissionSelection qPcp3Bytes:floatingIntervalSumVector(packetBytes) ETV
vector 97 small_network_ofnc_flowmod.switch2.eth[0].shaper.transmissionSelection qPcp3Latency:vector ETV
attr interpolationmode none
attr title "End-to-end latency, vector"
attr unit s
vector 98 small_network_ofnc_flowmod.switch2.eth[0].shaper.transmissionSelection qPcp4Bytes:vector(packetBytes) ETV
attr interpolationmode none
attr title "Received Bytes, vector(packetBytes)"
attr unit B
vector 99 small_network_ofnc_flowmod.switch2.eth[0].shaper.transmissionSelection qPcp4Bytes:floatingIntervalSumVector(packetBytes) ETV
vector 100 small_network_ofnc_flowmod.switch2.eth[0].shaper.transmissionSelection qPcp4Latency:vector ETV
attr interpolationmode none
attr title "End-to-end latency, vector"
attr unit s
vector 101 small_network_ofnc_flowmod.switch2.eth[0].shaper.transmissionSelection qPcp5Bytes:vector(packetBytes) ETV
attr interpolationmode none
attr title "Received Bytes, vector(packetBytes)"
attr unit B
vector 102 small_network_ofnc_flowmod.switch2.eth[0].shaper.transmissionSelection qPcp5Bytes:floatingIntervalSumVector(packetBytes) ETV
vector 103 small_network_ofnc_flowmod.switch2.eth[0].shaper.transmissionSelection qPcp5Latency:vector ETV
attr interpolationmode none
attr title "End-to-end latency, vector"
attr unit s
vector 104 small_network_ofnc_flowmod.switch2.eth[0].shaper.transmissionSelection qPcp6Bytes:vector(packetBytes) ETV
attr interpolationmode none
attr title "Received Bytes, vector(packetBytes)"
attr unit B
vector 105 small_network_ofnc_flowmod.switch2.eth[0].shaper.transmissionSelection qPcp6Bytes:floatingIntervalSumVector(packetBytes) ETV
vector 106 small_network_ofnc_flowmod.switch2.eth[0].shaper.transmissionSelection qPcp6Latency:vector ETV
attr interpolationmode none
attr title "End-to-end latency, vector"
attr unit s
vector 107 small_network_ofnc_flowmod.switch2.eth[0].shaper.transmissionSelection qPcp7Bytes:vector(packetBytes) ETV
attr interpolationmode none
attr title "Received Bytes, vector(packetBytes)"
attr unit B
vector 108 small_network_ofnc_flowmod.switch2.eth[0].shaper.transmissionSelection qPcp7Bytes:floatingIntervalSumVector(packetBytes) ETV
vector 109 small_network_ofnc_flowmod.switch2.eth[0].shaper.transmissionSelection qPcp7Latency:vector ETV
attr interpolationmode none
attr title "End-to-end latency, vector"
attr unit s
vector 110 small_network_ofnc_flowmod.switch2.etherMAC[0].shaper.transmissionSelection qPcp0Bytes:vector(packetBytes) ETV
attr interpolationmode none
attr title "Received Bytes, vector(packetBytes)"
attr unit B
vector 111 small_network_ofnc_flowmod.switch2.etherMAC[0].shaper.transmissionSelection qPcp0Bytes:floatingIntervalSumVector(packetBytes) ETV
vector 112 small_network_ofnc_flowmod.switch2.etherMAC[0].shaper.transmissionSelection qPcp0Latency:vector ETV
attr interpolationmode none
attr title "End-to-end latency, vector"
attr unit s
vector 113 small_network_ofnc_flowmod.switch2.etherMAC[0].shaper.transmissionSelection qPcp1Bytes:vector(packetBytes) ETV
attr interpolationmode none
attr title "Received Bytes, vector(packetBytes)"
attr unit B
vector 114 small_network_ofnc_flowmod.switch2.etherMAC[0].shaper.transmissionSelection qPcp1Bytes:floatingIntervalSumVector(packetBytes) ETV
vector 115 small_network_ofnc_flowmod.switch2.etherMAC[0].shaper.transmissionSelection qPcp1Latency:vector ETV
attr interpolationmode none
attr title "End-to-end latency, vector"
attr unit s
vector 116 small_network_ofnc_flowmod.switch2.etherMAC[0].shaper.transmissionSelection qPcp2Bytes:vector(packetBytes) ETV
attr interpolationmode none
attr title "Received Bytes, vector(packetBytes)"
attr unit B
vector 117 small_network_ofnc_flowmod.switch2.etherMAC[0].shaper.transmissionSelection qPcp2Bytes:floatingIntervalSumVector(packetBytes) ETV
vector 118 small_network_ofnc_flowmod.switch2.etherMAC[0].shaper.transmissionSelection qPcp2Latency:vector ETV
attr interpolationmode none
attr title "End-to-end latency, vector"
attr unit s
vector 119 small_network_ofnc_flowmod.switch2.etherMAC[0].shaper.transmissionSelection qPcp3Bytes:vector(packetBytes) ETV
attr interpolationmode none
attr title "Received Bytes, vector(packetBytes)"
attr unit B
vector 120 small_network_ofnc_flowmod.switch2.etherMAC[0].shaper.transmissionSelection qPcp3Bytes:floatingIntervalSumVector(packetBytes) ETV
vector 121 small_network_ofnc_flowmod.switch2.etherMAC[0].shaper.transmissionSelection qPcp3Latency:vector ETV
attr interpolationmode none
attr title "End-to-end latency, vector"
attr unit s
vector 122 small_network_ofnc_flowmod.switch2.etherMAC[0].shaper.transmissionSelection qPcp4Bytes:vector(packetBytes) ETV
attr interpolationmode none
attr title "Received Bytes, vector(packetBytes)"
attr unit B
vector 123 small_network_ofnc_flowmod.switch2.etherMAC[0].shaper.transmissionSelection qPcp4Bytes:floatingIntervalSumVector(packetBytes) ETV
vector 124 small_network_ofnc_flowmod.switch2.etherMAC[0].shaper.transmissionSelection qPcp4Latency:vector ETV
attr interpolationmode none
attr title "End-to-end latency, vector"
attr unit s
vector 125 small_network_ofnc_flowmod.switch2.etherMAC[0].shaper.transmissionSelection qPcp5Bytes:vector(packetBytes) ETV
attr interpolationmode none
attr title "Received Bytes, vector(packetBytes)"
attr unit B
vector 126 small_network_ofnc_flowmod.switch2.etherMAC[0].shaper.transmissionSelection qPcp5Bytes:floatingIntervalSumVector(packetBytes) ETV
vector 127 small_network_ofnc_flowmod.switch2.etherMAC[0].shaper.transmissionSelection qPcp5Latency:vector ETV
attr interpolationmode none
attr title "End-to-end latency, vector"
attr unit s
vector 128 small_network_ofnc_flowmod.switch2.etherMAC[0].shaper.transmissionSelection qPcp6Bytes:vector(packetBytes) ETV
attr interpolationmode none
attr title "Received Bytes, vector(packetBytes)"
attr unit B
vector 129 small_network_ofnc_flowmod.switch2.etherMAC[0].shaper.transmissionSelection qPcp6Bytes:floatingIntervalSumVector(packetBytes) ETV
vector 130 small_network_ofnc_flowmod.switch2.etherMAC[0].shaper.transmissionSelection qPcp6Latency:vector ETV
attr interpolationmode none
attr title "End-to-end latency, vector"
attr unit s
vector 131 small_network_ofnc_flowmod.switch2.etherMAC[0].shaper.transmissionSelection qPcp7Bytes:vector(packetBytes) ETV
attr interpolationmode none
attr title "Received Bytes, vector(packetBytes)"
attr unit B
vector 132 small_network_ofnc_flowmod.switch2.etherMAC[0].shaper.transmissionSelection qPcp7Bytes:floatingIntervalSumVector(packetBytes) ETV
vector 133 small_network_ofnc_flowmod.switch2.etherMAC[0].shaper.transmissionSelection qPcp7Latency:vector ETV
attr interpolationmode none
attr title "End-to-end latency, vector"
attr unit s
vector 134 small_network_ofnc_flowmod.switch2.etherMAC[1].shaper.transmissionSelection qPcp0Bytes:vector(packetBytes) ETV
attr interpolationmode none
attr title "Received Bytes, vector(packetBytes)"
attr unit B
vector 135 small_network_ofnc_flowmod.switch2.etherMAC[1].shaper.transmissionSelection qPcp0Bytes:floatingIntervalSumVector(packetBytes) ETV
vector 136 small_network_ofnc_flowmod.switch2.etherMAC[1].shaper.transmissionSelection qPcp0Latency:vector ETV
attr interpolationmode none
attr title "End-to-end latency, vector"
attr unit s
vector 137 small_network_ofnc_flowmod.switch2.etherMAC[1].shaper.transmissionSelection qPcp1Bytes:vector(packetBytes) ETV
attr interpolationmode none
attr title "Received Bytes, vector(packetBytes)"
attr unit B
vector 138 small_network_ofnc_flowmod.switch2.etherMAC[1].shaper.transmissionSelection qPcp1Bytes:floatingIntervalSumVector(packetBytes) ETV
vector 139 small_network_ofnc_flowmod.switch2.etherMAC[1].shaper.transmissionSelection qPcp1Latency:vector ETV
attr interpolationmode none
attr title "End-to-end latency, vector"
attr unit s
vector 140 small_network_ofnc_flowmod.switch2.etherMAC[1].shaper.transmissionSelection qPcp2Bytes:vector(packetBytes) ETV
attr interpolationmode none
attr title "Received Bytes, vector(packetBytes)"
attr unit B
vector 141 small_network_ofnc_flowmod.switch2.etherMAC[1].shaper.transmissionSelection qPcp2Bytes:floatingIntervalSumVector(packetBytes) ETV
vector 142 small_network_ofnc_flowmod.switch2.etherMAC[1].shaper.transmissionSelection qPcp2Latency:vector ETV
attr interpolationmode none
attr title "End-to-end latency, vector"
attr unit s
vector 143 small_network_ofnc_flowmod.switch2.etherMAC[1].shaper.transmissionSelection qPcp3Bytes:vector(packetBytes) ETV
attr interpolationmode none
attr title "Received Bytes, vector(packetBytes)"
attr unit B
vector 144 small_network_ofnc_flowmod.switch2.etherMAC[1].shaper.transmissionSelection qPcp3Bytes:floatingIntervalSumVector(packetBytes) ETV
vector 145 small_network_ofnc_flowmod.switch2.etherMAC[1].shaper.transmissionSelection qPcp3Latency:vector ETV
attr interpolationmode none
attr title "End-to-end latency, vector"
attr unit s
vector 146 small_network_ofnc_flowmod.switch2.etherMAC[1].shaper.transmissionSelection qPcp4Bytes:vector(packetBytes) ETV
attr interpolationmode none
attr title "Received Bytes, vector(packetBytes)"
attr unit B
vector 147 small_network_ofnc_flowmod.switch2.etherMAC[1].shaper.transmissionSelection qPcp4Bytes:floatingIntervalSumVector(packetBytes) ETV
vector 148 small_network_ofnc_flowmod.switch2.etherMAC[1].shaper.transmissionSelection qPcp4Latency:vector ETV
attr interpolationmode none
attr title "End-to-end latency, vector"
attr unit s
vector 149 small_network_ofnc_flowmod.switch2.etherMAC[1].shaper.transmissionSelection qPcp5Bytes:vector(packetBytes) ETV
attr interpolationmode none
attr title "Received Bytes, vector(packetBytes)"
attr unit B
vector 150 small_network_ofnc_flowmod.switch2.etherMAC[1].shaper.transmissionSelection qPcp5Bytes:floatingIntervalSumVector(packetBytes) ETV
vector 151 small_network_ofnc_flowmod.switch2.etherMAC[1].shaper.transmissionSelection qPcp5Latency:vector ETV
attr interpolationmode none
attr title "End-to-end latency, vector"
attr unit s
vector 152 small_network_ofnc_flowmod.switch2.etherMAC[1].shaper.transmissionSelection qPcp6Bytes:vector(packetBytes) ETV
attr interpolationmode none
attr title "Received Bytes, vector(packetBytes)"
attr unit B
vector 153 small_network_ofnc_flowmod.switch2.etherMAC[1].shaper.transmissionSelection qPcp6Bytes:floatingIntervalSumVector(packetBytes) ETV
vector 154 small_network_ofnc_flowmod.switch2.etherMAC[1].shaper.transmissionSelection qPcp6Latency:vector ETV
attr interpolationmode none
attr title "End-to-end latency, vector"
attr unit s
vector 155 small_network_ofnc_flowmod.switch2.etherMAC[1].shaper.transmissionSelection qPcp7Bytes:vector(packetBytes) ETV
attr interpolationmode none
attr title "Received Bytes, vector(packetBytes)"
attr unit B
vector 156 small_network_ofnc_flowmod.switch2.etherMAC[1].shaper.transmissionSelection qPcp7Bytes:floatingIntervalSumVector(packetBytes) ETV
vector 157 small_network_ofnc_flowmod.switch2.etherMAC[1].shaper.transmissionSelection qPcp7Latency:vector ETV
attr interpolationmode none
attr title "End-to-end latency, vector"
attr unit s
vector 158 small_network_ofnc_flowmod.switch2.etherMAC[2].shaper.transmissionSelection qPcp0Bytes:vector(packetBytes) ETV
attr interpolationmode none
attr title "Received Bytes, vector(packetBytes)"
attr unit B
vector 159 small_network_ofnc_flowmod.switch2.etherMAC[2].shaper.transmissionSelection qPcp0Bytes:floatingIntervalSumVector(packetBytes) ETV
vector 160 small_network_ofnc_flowmod.switch2.etherMAC[2].shaper.transmissionSelection qPcp0Latency:vector ETV
attr interpolationmode none
attr title "End-to-end latency, vector"
attr unit s
vector 161 small_network_ofnc_flowmod.switch2.etherMAC[2].shaper.transmissionSelection qPcp1Bytes:vector(packetBytes) ETV
attr interpolationmode none
attr title "Received Bytes, vector(packetBytes)"
attr unit B
vector 162 small_network_ofnc_flowmod.switch2.etherMAC[2].shaper.transmissionSelection qPcp1Bytes:floatingIntervalSumVector(packetBytes) ETV
vector 163 small_network_ofnc_flowmod.switch2.etherMAC[2].shaper.transmissionSelection qPcp1Latency:vector ETV
attr interpolationmode none
attr title "End-to-end latency, vector"
attr unit s
vector 164 small_network_ofnc_flowmod.switch2.etherMAC[2].shaper.transmissionSelection qPcp2Bytes:vector(packetBytes) ETV
attr interpolationmode none
attr title "Received Bytes, vector(packetBytes)"
attr unit B
vector 165 small_network_ofnc_flowmod.switch2.etherMAC[2].shaper.transmissionSelection qPcp2Bytes:floatingIntervalSumVector(packetBytes) ETV
vector 166 small_network_ofnc_flowmod.switch2.etherMAC[2].shaper.transmissionSelection qPcp2Latency:vector ETV
attr interpolationmode none
attr title "End-to-end latency, vector"
attr unit s
vector 167 small_network_ofnc_flowmod.switch2.etherMAC[2].shaper.transmissionSelection qPcp3Bytes:vector(packetBytes) ETV
attr interpolationmode none
attr title "Received Bytes, vector(packetBytes)"
attr unit B
vector 168 small_network_ofnc_flowmod.switch2.etherMAC[2].shaper.transmissionSelection qPcp3Bytes:floatingIntervalSumVector(packetBytes) ETV
vector 169 small_network_ofnc_flowmod.switch2.etherMAC[2].shaper.transmissionSelection qPcp3Latency:vector ETV
attr interpolationmode none
attr title "End-to-end latency, vector"
attr unit s
vector 170 small_network_ofnc_flowmod.switch2.etherMAC[2].shaper.transmissionSelection qPcp4Bytes:vector(packetBytes) ETV
attr interpolationmode none
attr title "Received Bytes, vector(packetBytes)"
attr unit B
vector 171 small_network_ofnc_flowmod.switch2.etherMAC[2].shaper.transmissionSelection qPcp4Bytes:floatingIntervalSumVector(packetBytes) ETV
vector 172 small_network_ofnc_flowmod.switch2.etherMAC[2].shaper.transmissionSelection qPcp4Latency:vector ETV
attr interpolationmode none
attr title "End-to-end latency, vector"
attr unit s
vector 173 small_network_ofnc_flowmod.switch2.etherMAC[2].shaper.transmissionSelection qPcp5Bytes:vector(packetBytes) ETV
attr interpolationmode none
attr title "Received Bytes, vector(packetBytes)"
attr unit B
vector 174 small_network_ofnc_flowmod.switch2.etherMAC[2].shaper.transmissionSelection qPcp5Bytes:floatingIntervalSumVector(packetBytes) ETV
vector 175 small_network_ofnc_flowmod.switch2.etherMAC[2].shaper.transmissionSelection qPcp5Latency:vector ETV
attr interpolationmode none
attr title "End-to-end latency, vector"
attr unit s
vector 176 small_network_ofnc_flowmod.switch2.etherMAC[2].shaper.transmissionSelection qPcp6Bytes:vector(packetBytes) ETV
attr interpolationmode none
attr title "Received Bytes, vector(packetBytes)"
attr unit B
vector 177 small_network_ofnc_flowmod.switch2.etherMAC[2].shaper.transmissionSelection qPcp6Bytes:floatingIntervalSumVector(packetBytes) ETV
vector 178 small_network_ofnc_flowmod.switch2.etherMAC[2].shaper.transmissionSelection qPcp6Latency:vector ETV
attr interpolationmode none
attr title "End-to-end latency, vector"
attr unit s
vector 179 small_network_ofnc_flowmod.switch2.etherMAC[2].shaper.transmissionSelection qPcp7Bytes:vector(packetBytes) ETV
attr interpolationmode none
attr title "Received Bytes, vector(packetBytes)"
attr unit B
vector 180 small_network_ofnc_flowmod.switch2.etherMAC[2].shaper.transmissionSelection qPcp7Bytes:floatingIntervalSumVector(packetBytes) ETV
vector 181 small_network_ofnc_flowmod.switch2.etherMAC[2].shaper.transmissionSelection qPcp7Latency:vector ETV
attr interpolationmode none
attr title "End-to-end latency, vector"
attr unit s
vector 182 small_network_ofnc_flowmod.node1.phy[0].shaper.transmissionSelection qPcp0Bytes:vector(packetBytes) ETV
attr interpolationmode none
attr title "Received Bytes, vector(packetBytes)"
attr unit B
vector 183 small_network_ofnc_flowmod.node1.phy[0].shaper.transmissionSelection qPcp0Bytes:floatingIntervalSumVector(packetBytes) ETV
vector 184 small_network_ofnc_flowmod.node1.phy[0].shaper.transmissionSelection qPcp0Latency:vector ETV
attr interpolationmode none
attr title "End-to-end latency, vector"
attr unit s
vector 185 small_network_ofnc_flowmod.node1.phy[0].shaper.transmissionSelection qPcp1Bytes:vector(packetBytes) ETV
attr interpolationmode none
attr title "Received Bytes, vector(packetBytes)"
attr unit B
vector 186 small_network_ofnc_flowmod.node1.phy[0].shaper.transmissionSelection qPcp1Bytes:floatingIntervalSumVector(packetBytes) ETV
vector 187 small_network_ofnc_flowmod.node1.phy[0].shaper.transmissionSelection qPcp1Latency:vector ETV
attr interpolationmode none
attr title "End-to-end latency, vector"
attr unit s
vector 188 small_network_ofnc_flowmod.node1.phy[0].shaper.transmissionSelection qPcp2Bytes:vector(packetBytes) ETV
attr interpolationmode none
attr title "Received Bytes, vector(packetBytes)"
attr unit B
vector 189 small_network_ofnc_flowmod.node1.phy[0].shaper.transmissionSelection qPcp2Bytes:floatingIntervalSumVector(packetBytes) ETV
vector 190 small_network_ofnc_flowmod.node1.phy[0].shaper.transmissionSelection qPcp2Latency:vector ETV
attr interpolationmode none
attr title "End-to-end latency, vector"
attr unit s
vector 191 small_network_ofnc_flowmod.node1.phy[0].shaper.transmissionSelection qPcp3Bytes:vector(packetBytes) ETV
attr interpolationmode none
attr title "Received Bytes, vector(packetBytes)"
attr unit B
vector 192 small_network_ofnc_flowmod.node1.phy[0].shaper.transmissionSelection qPcp3Bytes:floatingIntervalSumVector(packetBytes) ETV
vector 193 small_network_ofnc_flowmod.node1.phy[0].shaper.transmissionSelection qPcp3Latency:vector ETV
attr interpolationmode none
attr title "End-to-end latency, vector"
attr unit s
vector 194 small_network_ofnc_flowmod.node1.phy[0].shaper.transmissionSelection qPcp4Bytes:vector(packetBytes) ETV
attr interpolationmode none
attr title "Received Bytes, vector(packetBytes)"
attr unit B
vector 195 small_network_ofnc_flowmod.node1.phy[0].shaper.transmissionSelection qPcp4Bytes:floatingIntervalSumVector(packetBytes) ETV
vector 196 small_network_ofnc_flowmod.node1.phy[0].shaper.transmissionSelection qPcp4Latency:vector ETV
attr interpolationmode none
attr title "End-to-end latency, vector"
attr unit s
vector 197 small_network_ofnc_flowmod.node1.phy[0].shaper.transmissionSelection qPcp5Bytes:vector(packetBytes) ETV
attr interpolationmode none
attr title "Received Bytes, vector(packetBytes)"
attr unit B
vector 198 small_network_ofnc_flowmod.node1.phy[0].shaper.transmissionSelection qPcp5Bytes:floatingIntervalSumVector(packetBytes) ETV
vector 199 small_network_ofnc_flowmod.node1.phy[0].shaper.transmissionSelection qPcp5Latency:vector ETV
attr interpolationmode none
attr title "End-to-end latency, vector"
attr unit s
vector 200 small_network_ofnc_flowmod.node1.phy[0].shaper.transmissionSelection qPcp6Bytes:vector(packetBytes) ETV
attr interpolationmode none
attr title "Received Bytes, vector(packetBytes)"
attr unit B
vector 201 small_network_ofnc_flowmod.node1.phy[0].shaper.transmissionSelection qPcp6Bytes:floatingIntervalSumVector(packetBytes) ETV
vector 202 small_network_ofnc_flowmod.node1.phy[0].shaper.transmissionSelection qPcp6Latency:vector ETV
attr interpolationmode none
attr title "End-to-end latency, vector"
attr unit s
vector 203 small_network_ofnc_flowmod.node1.phy[0].shaper.transmissionSelection qPcp7Bytes:vector(packetBytes) ETV
attr interpolationmode none
attr title "Received Bytes, vector(packetBytes)"
attr unit B
vector 204 small_network_ofnc_flowmod.node1.phy[0].shaper.transmissionSelection qPcp7Bytes:floatingIntervalSumVector(packetBytes) ETV
vector 205 small_network_ofnc_flowmod.node1.phy[0].shaper.transmissionSelection qPcp7Latency:vector ETV
attr interpolationmode none
attr title "End-to-end latency, vector"
attr unit s
vector 206 small_network_ofnc_flowmod.node2.phy[0].shaper.transmissionSelection qPcp0Bytes:vector(packetBytes) ETV
attr interpolationmode none
attr title "Received Bytes, vector(packetBytes)"
attr unit B
vector 207 small_network_ofnc_flowmod.node2.phy[0].shaper.transmissionSelection qPcp0Bytes:floatingIntervalSumVector(packetBytes) ETV
vector 208 small_network_ofnc_flowmod.node2.phy[0].shaper.transmissionSelection qPcp0Latency:vector ETV
attr interpolationmode none
attr title "End-to-end latency, vector"
attr unit s
vector 209 small_network_ofnc_flowmod.node2.phy[0].shaper.transmissionSelection qPcp1Bytes:vector(packetBytes) ETV
attr interpolationmode none
attr title "Received Bytes, vector(packetBytes)"
attr unit B
vector 210 small_network_ofnc_flowmod.node2.phy[0].shaper.transmissionSelection qPcp1Bytes:floatingIntervalSumVector(packetBytes) ETV
vector 211 small_network_ofnc_flowmod.node2.phy[0].shaper.transmissionSelection qPcp1Latency:vector ETV
attr interpolationmode none
attr title "End-to-end latency, vector"
attr unit s
vector 212 small_network_ofnc_flowmod.node2.phy[0].shaper.transmissionSelection qPcp2Bytes:vector(packetBytes) ETV
attr interpolationmode none
attr title "Received Bytes, vector(packetBytes)"
attr unit B
vector 213 small_network_ofnc_flowmod.node2.phy[0].shaper.transmissionSelection qPcp2Bytes:floatingIntervalSumVector(packetBytes) ETV
vector 214 small_network_ofnc_flowmod.node2.phy[0].shaper.transmissionSelection qPcp2Latency:vector ETV
attr interpolationmode none
attr title "End-to-end latency, vector"
attr unit s
vector 215 small_network_ofnc_flowmod.node2.phy[0].shaper.transmissionSelection qPcp3Bytes:vector(packetBytes) ETV
attr interpolationmode none
attr title "Received Bytes, vector(packetBytes)"
attr unit B
vector 216 small_network_ofnc_flowmod.node2.phy[0].shaper.transmissionSelection qPcp3Bytes:floatingIntervalSumVector(packetBytes) ETV
vector 217 small_network_ofnc_flowmod.node2.phy[0].shaper.transmissionSelection qPcp3Latency:vector ETV
attr interpolationmode none
attr title "End-to-end latency, vector"
attr unit s
vector 218 small_network_ofnc_flowmod.node2.phy[0].shaper.transmissionSelection qPcp4Bytes:vector(packetBytes) ETV
attr interpolationmode none
attr title "Received Bytes, vector(packetBytes)"
attr unit B
vector 219 small_network_ofnc_flowmod.node2.phy[0].shaper.transmissionSelection qPcp4Bytes:floatingIntervalSumVector(packetBytes) ETV
vector 220 small_network_ofnc_flowmod.node2.phy[0].shaper.transmissionSelection qPcp4Latency:vector ETV
attr interpolationmode none
attr title "End-to-end latency, vector"
attr unit s
vector 221 small_network_ofnc_flowmod.node2.phy[0].shaper.transmissionSelection qPcp5Bytes:vector(packetBytes) ETV
attr interpolationmode none
attr title "Received Bytes, vector(packetBytes)"
attr unit B
vector 222 small_network_ofnc_flowmod.node2.phy[0].shaper.transmissionSelection qPcp5Bytes:floatingIntervalSumVector(packetBytes) ETV
vector 223 small_network_ofnc_flowmod.node2.phy[0].shaper.transmissionSelection qPcp5Latency:vector ETV
attr interpolationmode none
attr title "End-to-end latency, vector"
attr unit s
vector 224 small_network_ofnc_flowmod.node2.phy[0].shaper.transmissionSelection qPcp6Bytes:vector(packetBytes) ETV
attr interpolationmode none
attr title "Received Bytes, vector(packetBytes)"
attr unit B
vector 225 small_network_ofnc_flowmod.node2.phy[0].shaper.transmissionSelection qPcp6Bytes:floatingIntervalSumVector(packetBytes) ETV
vector 226 small_network_ofnc_flowmod.node2.phy[0].shaper.transmissionSelection qPcp6Latency:vector ETV
attr interpolationmode none
attr title "End-to-end latency, vector"
attr unit s
vector 227 small_network_ofnc_flowmod.node2.phy[0].shaper.transmissionSelection qPcp7Bytes:vector(packetBytes) ETV
attr interpolationmode none
attr title "Received Bytes, vector(packetBytes)"
attr unit B
vector 228 small_network_ofnc_flowmod.node2.phy[0].shaper.transmissionSelection qPcp7Bytes:floatingIntervalSumVector(packetBytes) ETV
vector 229 small_network_ofnc_flowmod.node2.phy[0].shaper.transmissionSelection qPcp7Latency:vector ETV
attr interpolationmode none
attr title "End-to-end latency, vector"
attr unit s
vector 230 small_network_ofnc_flowmod.node3.phy[0].shaper.transmissionSelection qPcp0Bytes:vector(packetBytes) ETV
attr interpolationmode none
attr title "Received Bytes, vector(packetBytes)"
attr unit B
vector 231 small_network_ofnc_flowmod.node3.phy[0].shaper.transmissionSelection qPcp0Bytes:floatingIntervalSumVector(packetBytes) ETV
vector 232 small_network_ofnc_flowmod.node3.phy[0].shaper.transmissionSelection qPcp0Latency:vector ETV
attr interpolationmode none
attr title "End-to-end latency, vector"
attr unit s
vector 233 small_network_ofnc_flowmod.node3.phy[0].shaper.transmissionSelection qPcp1Bytes:vector(packetBytes) ETV
attr interpolationmode none
attr title "Received Bytes, vector(packetBytes)"
attr unit B
vector 234 small_network_ofnc_flowmod.node3.phy[0].shaper.transmissionSelection qPcp1Bytes:floatingIntervalSumVector(packetBytes) ETV
vector 235 small_network_ofnc_flowmod.node3.phy[0].shaper.transmissionSelection qPcp1Latency:vector ETV
attr interpolationmode none
attr title "End-to-end latency, vector"
attr unit s
vector 236 small_network_ofnc_flowmod.node3.phy[0].shaper.transmissionSelection qPcp2Bytes:vector(packetBytes) ETV
attr interpolationmode none
attr title "Received Bytes, vector(packetBytes)"
attr unit B
vector 237 small_network_ofnc_flowmod.node3.phy[0].shaper.transmissionSelection qPcp2Bytes:floatingIntervalSumVector(packetBytes) ETV
vector 238 small_network_ofnc_flowmod.node3.phy[0].shaper.transmissionSelection qPcp2Latency:vector ETV
attr interpolationmode none
attr title "End-to-end latency, vector"
attr unit s
vector 239 small_network_ofnc_flowmod.node3.phy[0].shaper.transmissionSelection qPcp3Bytes:vector(packetBytes) ETV
attr interpolationmode none
attr title "Received Bytes, vector(packetBytes)"
attr unit B
vector 240 small_network_ofnc_flowmod.node3.phy[0].shaper.transmissionSelection qPcp3Bytes:floatingIntervalSumVector(packetBytes) ETV
vector 241 small_network_ofnc_flowmod.node3.phy[0].shaper.transmissionSelection qPcp3Latency:vector ETV
attr interpolationmode none
attr title "End-to-end latency, vector"
attr unit s
vector 242 small_network_ofnc_flowmod.node3.phy[0].shaper.transmissionSelection qPcp4Bytes:vector(packetBytes) ETV
attr interpolationmode none
attr title "Received Bytes, vector(packetBytes)"
attr unit B
vector 243 small_network_ofnc_flowmod.node3.phy[0].shaper.transmissionSelection qPcp4Bytes:floatingIntervalSumVector(packetBytes) ETV
vector 244 small_network_ofnc_flowmod.node3.phy[0].shaper.transmissionSelection qPcp4Latency:vector ETV
attr interpolationmode none
attr title "End-to-end latency, vector"
attr unit s
vector 245 small_network_ofnc_flowmod.node3.phy[0].shaper.transmissionSelection qPcp5Bytes:vector(packetBytes) ETV
attr interpolationmode none
attr title "Received Bytes, vector(packetBytes)"
attr unit B
vector 246 small_network_ofnc_flowmod.node3.phy[0].shaper.transmissionSelection qPcp5Bytes:floatingIntervalSumVector(packetBytes) ETV
vector 247 small_network_ofnc_flowmod.node3.phy[0].shaper.transmissionSelection qPcp5Latency:vector ETV
attr interpolationmode none
attr title "End-to-end latency, vector"
attr unit s
vector 248 small_network_ofnc_flowmod.node3.phy[0].shaper.transmissionSelection qPcp6Bytes:vector(packetBytes) ETV
attr interpolationmode none
attr title "Received Bytes, vector(packetBytes)"
attr unit B
vector 249 small_network_ofnc_flowmod.node3.phy[0].shaper.transmissionSelection qPcp6Bytes:floatingIntervalSumVector(packetBytes) ETV
vector 250 small_network_ofnc_flowmod.node3.phy[0].shaper.transmissionSelection qPcp6Latency:vector ETV
attr interpolationmode none
attr title "End-to-end latency, vector"
attr unit s
vector 251 small_network_ofnc_flowmod.node3.phy[0].shaper.transmissionSelection qPcp7Bytes:vector(packetBytes) ETV
attr interpolationmode none
attr title "Received Bytes, vector(packetBytes)"
attr unit B
vector 252 small_network_ofnc_flowmod.node3.phy[0].shaper.transmissionSelection qPcp7Bytes:floatingIntervalSumVector(packetBytes) ETV
vector 253 small_network_ofnc_flowmod.node3.phy[0].shaper.transmissionSelection qPcp7Latency:vector ETV
attr interpolationmode none
attr title "End-to-end latency, vector"
attr unit s
vector 254 small_network_ofnc_flowmod.node1.app[1] payloadOverTime:vector ETV
attr interpolationmode linear
attr source payloadSignal
attr title "payload over time, vector"
attr unit B
vector 255 small_network_ofnc_flowmod.node1.app[1] sendIntervalOverTime:vector ETV
attr interpolationmode linear
attr source intervalSignal
attr title "send interval over time, vector"
attr unit s
vector 256 small_network_ofnc_flowmod.switch1.etherMAC[0].shaper.transmissionGate[7] state:vector ETV
attr "" ""
attr interpolationmode sample-hold
attr source NF_QBV_STATE_CHANGED
attr title "State, vector"
vector 257 small_network_ofnc_flowmod.switch1.etherMAC[1].shaper.transmissionGate[7] state:vector ETV
attr "" ""
attr interpolationmode sample-hold
attr source NF_QBV_STATE_CHANGED
attr title "State, vector"
vector 258 small_network_ofnc_flowmod.switch2.etherMAC[0].shaper.transmissionGate[6] state:vector ETV
attr "" ""
attr interpolationmode sample-hold
attr source NF_QBV_STATE_CHANGED
attr title "State, vector"
vector 259 small_network_ofnc_flowmod.switch2.etherMAC[0].shaper.transmissionGate[5] state:vector ETV
attr "" ""
attr interpolationmode sample-hold
attr source NF_QBV_STATE_CHANGED
attr title "State, vector"
vector 260 small_network_ofnc_flowmod.switch2.etherMAC[0].shaper.transmissionGate[4] state:vector ETV
attr "" ""
attr interpolationmode sample-hold
attr source NF_QBV_STATE_CHANGED
attr title "State, vector"
vector 261 small_network_ofnc_flowmod.switch2.etherMAC[0].shaper.transmissionGate[3] state:vector ETV
attr "" ""
attr interpolationmode sample-hold
attr source NF_QBV_STATE_CHANGED
attr title "State, vector"
vector 262 small_network_ofnc_flowmod.switch2.etherMAC[0].shaper.transmissionGate[2] state:vector ETV
attr "" ""
attr interpolationmode sample-hold
attr source NF_QBV_STATE_CHANGED
attr title "State, vector"
vector 263 small_network_ofnc_flowmod.switch2.etherMAC[0].shaper.transmissionGate[1] state:vector ETV
attr "" ""
attr interpolationmode sample-hold
attr source NF_QBV_STATE_CHANGED
attr title "State, vector"
vector 264 small_network_ofnc_flowmod.switch2.etherMAC[0].shaper.transmissionGate[0] state:vector ETV
attr "" ""
attr interpolationmode sample-hold
attr source NF_QBV_STATE_CHANGED
attr title "State, vector"
vector 265 small_network_ofnc_flowmod.switch2.etherMAC[1].shaper.transmissionGate[6] state:vector ETV
attr "" ""
attr interpolationmode sample-hold
attr source NF_QBV_STATE_CHANGED
attr title "State, vector"
vector 266 small_network_ofnc_flowmod.switch2.etherMAC[1].shaper.transmissionGate[5] state:vector ETV
attr "" ""
attr interpolationmode sample-hold
attr source NF_QBV_STATE_CHANGED
attr title "State, vector"
vector 267 small_network_ofnc_flowmod.switch2.etherMAC[1].shaper.transmissionGate[4] state:vector ETV
attr "" ""
attr interpolationmode sample-hold
attr source NF_QBV_STATE_CHANGED
attr title "State, vector"
vector 268 small_network_ofnc_flowmod.switch2.etherMAC[1].shaper.transmissionGate[3] state:vector ETV
attr "" ""
attr interpolationmode sample-hold
attr source NF_QBV_STATE_CHANGED
attr title "State, vector"
vector 269 small_network_ofnc_flowmod.switch2.etherMAC[1].shaper.transmissionGate[2] state:vector ETV
attr "" ""
attr interpolationmode sample-hold
attr source NF_QBV_STATE_CHANGED
attr title "State, vector"
vector 270 small_network_ofnc_flowmod.switch2.etherMAC[1].shaper.transmissionGate[1] state:vector ETV
attr "" ""
attr interpolationmode sample-hold
attr source NF_QBV_STATE_CHANGED
attr title "State, vector"
vector 271 small_network_ofnc_flowmod.switch2.etherMAC[1].shaper.transmissionGate[0] state:vector ETV
attr "" ""
attr interpolationmode sample-hold
attr source NF_QBV_STATE_CHANGED
attr title "State, vector"
vector 272 small_network_ofnc_flowmod.switch2.etherMAC[2].shaper.transmissionGate[6] state:vector ETV
attr "" ""
attr interpolationmode sample-hold
attr source NF_QBV_STATE_CHANGED
attr title "State, vector"
vector 273 small_network_ofnc_flowmod.switch2.etherMAC[2].shaper.transmissionGate[5] state:vector ETV
attr "" ""
attr interpolationmode sample-hold
attr source NF_QBV_STATE_CHANGED
attr title "State, vector"
vector 274 small_network_ofnc_flowmod.switch2.etherMAC[2].shaper.transmissionGate[4] state:vector ETV
attr "" ""
attr interpolationmode sample-hold
attr source NF_QBV_STATE_CHANGED
attr title "State, vector"
vector 275 small_network_ofnc_flowmod.switch2.etherMAC[2].shaper.transmissionGate[3] state:vector ETV
attr "" ""
attr interpolationmode sample-hold
attr source NF_QBV_STATE_CHANGED
attr title "State, vector"
vector 276 small_network_ofnc_flowmod.switch2.etherMAC[2].shaper.transmissionGate[2] state:vector ETV
attr "" ""
attr interpolationmode sample-hold
attr source NF_QBV_STATE_CHANGED
attr title "State, vector"
vector 277 small_network_ofnc_flowmod.switch2.etherMAC[2].shaper.transmissionGate[1] state:vector ETV
attr "" ""
attr interpolationmode sample-hold
attr source NF_QBV_STATE_CHANGED
attr title "State, vector"
vector 278 small_network_ofnc_flowmod.switch2.etherMAC[2].shaper.transmissionGate[0] state:vector ETV
attr "" ""
attr interpolationmode sample-hold
attr source NF_QBV_STATE_CHANGED
attr title "State, vector"
vector 279 small_network_ofnc_flowmod.node1.phy[0].shaper.transmissionGate[7] state:vector ETV
attr "" ""
attr interpolationmode sample-hold
attr source NF_QBV_STATE_CHANGED
attr title "State, vector"
vector 280 small_network_ofnc_flowmod.node1.phy[0].shaper.transmissionGate[6] state:vector ETV
attr "" ""
attr interpolationmode sample-hold
attr source NF_QBV_STATE_CHANGED
attr title "State, vector"
vector 281 small_network_ofnc_flowmod.node1.phy[0].shaper.transmissionGate[5] state:vector ETV
attr "" ""
attr interpolationmode sample-hold
attr source NF_QBV_STATE_CHANGED
attr title "State, vector"
vector 282 small_network_ofnc_flowmod.node1.phy[0].shaper.transmissionGate[4] state:vector ETV
attr "" ""
attr interpolationmode sample-hold
attr source NF_QBV_STATE_CHANGED
attr title "State, vector"
vector 283 small_network_ofnc_flowmod.node1.phy[0].shaper.transmissionGate[3] state:vector ETV
attr "" ""
attr interpolationmode sample-hold
attr source NF_QBV_STATE_CHANGED
attr title "State, vector"
vector 284 small_network_ofnc_flowmod.node1.phy[0].shaper.transmissionGate[2] state:vector ETV
attr "" ""
attr interpolationmode sample-hold
attr source NF_QBV_STATE_CHANGED
attr title "State, vector"
vector 285 small_network_ofnc_flowmod.node1.phy[0].shaper.transmissionGate[1] state:vector ETV
attr "" ""
attr interpolationmode sample-hold
attr source NF_QBV_STATE_CHANGED
attr title "State, vector"
vector 286 small_network_ofnc_flowmod.node1.phy[0].shaper.transmissionGate[0] state:vector ETV
attr "" ""
attr interpolationmode sample-hold
attr source NF_QBV_STATE_CHANGED
attr title "State, vector"
vector 287 small_network_ofnc_flowmod.node1.bgOut rxBytes:vector(packetBytes) ETV
attr interpolationmode none
attr source rxPk
attr title "Received Bytes, vector(packetBytes)"
attr unit B
vector 288 small_network_ofnc_flowmod.node1.bgOut rxLatency:vector ETV
attr interpolationmode none
attr source messageAge(rxPk)
attr title "End-to-end latency (received), vector"
attr unit s
vector 289 small_network_ofnc_flowmod.node1.bgOut length:vector ETV
attr interpolationmode sample-hold
attr source length
attr title "Queue Length, vector"
attr unit packets
vector 290 small_network_ofnc_flowmod.node1.bgOut size:vector ETV
attr interpolationmode sample-hold
attr source size
attr title "Queue Size, vector"
attr unit B
vector 291 small_network_ofnc_flowmod.node1.bgOut txBytes:vector(packetBytes) ETV
attr interpolationmode none
attr source txPk
attr title "Transmitted Bytes, vector(packetBytes)"
attr unit B
vector 292 small_network_ofnc_flowmod.node1.bgOut txLatency:vector ETV
attr interpolationmode none
attr source messageAge(txPk)
attr title "End-to-end latency (transmitted), vector"
attr unit s
vector 293 small_network_ofnc_flowmod.switch1.tcp tcpRcvQueueBytes ETV
vector 294 small_network_ofnc_flowmod.switch1.tcp "advertised window" ETV
vector 295 small_network_ofnc_flowmod.switch1.tcp "receive window" ETV
vector 296 small_network_ofnc_flowmod.switch1.tcp "sent ack" ETV
vector 297 small_network_ofnc_flowmod.switch2.tcp tcpRcvQueueBytes ETV
vector 298 small_network_ofnc_flowmod.switch2.tcp "advertised window" ETV
vector 299 small_network_ofnc_flowmod.switch2.tcp "receive window" ETV
vector 300 small_network_ofnc_flowmod.switch2.tcp "sent ack" ETV
vector 301 small_network_ofnc_flowmod.switch1.networkLayer.arp sentReq:vector ETV
attr title "ARP request sent, vector"
vector 302 small_network_ofnc_flowmod.switch2.networkLayer.arp sentReq:vector ETV
attr title "ARP request sent, vector"
vector 303 small_network_ofnc_flowmod.node1.phy[0].shaper.queue[0] rxBytes:vector(packetBytes) ETV
attr interpolationmode none
attr source rxPk
attr title "Received Bytes, vector(packetBytes)"
attr unit B
vector 304 small_network_ofnc_flowmod.node1.phy[0].shaper.queue[0] rxLatency:vector ETV
attr interpolationmode none
attr source messageAge(rxPk)
attr title "End-to-end latency (received), vector"
attr unit s
vector 305 small_network_ofnc_flowmod.node1.phy[0].shaper.queue[0] length:vector ETV
attr interpolationmode sample-hold
attr source length
attr title "Queue Length, vector"
attr unit packets
vector 306 small_network_ofnc_flowmod.node1.phy[0].shaper.queue[0] size:vector ETV
attr interpolationmode sample-hold
attr source size
attr title "Queue Size, vector"
attr unit B
vector 307 small_network_ofnc_flowmod.node1.phy[0].shaper.queue[0] state:vector ETV
attr "" ""
attr interpolationmode sample-hold
attr source NF_QBV_STATE_CHANGED
attr title "State, vector"
vector 308 small_network_ofnc_flowmod.switch1.eth[0].encap encapPk:vector(packetBytes) ETV
attr interpolationmode none
attr source encapPk
attr title "packets encapsulated, vector(packetBytes)"
vector 309 small_network_ofnc_flowmod.switch2.eth[0].encap encapPk:vector(packetBytes) ETV
attr interpolationmode none
attr source encapPk
attr title "packets encapsulated, vector(packetBytes)"
vector 310 small_network_ofnc_flowmod.switch1.eth[0].shaper.queue[0] rxBytes:vector(packetBytes) ETV
attr interpolationmode none
attr source rxPk
attr title "Received Bytes, vector(packetBytes)"
attr unit B
vector 311 small_network_ofnc_flowmod.switch1.eth[0].shaper.queue[0] rxLatency:vector ETV
attr interpolationmode none
attr source messageAge(rxPk)
attr title "End-to-end latency (received), vector"
attr unit s
vector 312 small_network_ofnc_flowmod.switch1.eth[0].shaper.queue[0] length:vector ETV
attr interpolationmode sample-hold
attr source length
attr title "Queue Length, vector"
attr unit packets
vector 313 small_network_ofnc_flowmod.switch1.eth[0].shaper.queue[0] size:vector ETV
attr interpolationmode sample-hold
attr source size
attr title "Queue Size, vector"
attr unit B
vector 314 small_network_ofnc_flowmod.switch1.eth[0].shaper.queue[0] state:vector ETV
attr "" ""
attr interpolationmode sample-hold
attr source NF_QBV_STATE_CHANGED
attr title "State, vector"
vector 315 small_network_ofnc_flowmod.switch2.eth[0].shaper.queue[0] rxBytes:vector(packetBytes) ETV
attr interpolationmode none
attr source rxPk
attr title "Received Bytes, vector(packetBytes)"
attr unit B
vector 316 small_network_ofnc_flowmod.switch2.eth[0].shaper.queue[0] rxLatency:vector ETV
attr interpolationmode none
attr source messageAge(rxPk)
attr title "End-to-end latency (received), vector"
attr unit s
vector 317 small_network_ofnc_flowmod.switch2.eth[0].shaper.queue[0] length:vector ETV
attr interpolationmode sample-hold
attr source length
attr title "Queue Length, vector"
attr unit packets
vector 318 small_network_ofnc_flowmod.switch2.eth[0].shaper.queue[0] size:vector ETV
attr interpolationmode sample-hold
attr source size
attr title "Queue Size, vector"
attr unit B
vector 319 small_network_ofnc_flowmod.switch2.eth[0].shaper.queue[0] state:vector ETV
attr "" ""
attr interpolationmode sample-hold
attr source NF_QBV_STATE_CHANGED
attr title "State, vector"
vector 320 small_network_ofnc_flowmod.switch1.eth[0].mac rxPkFromHL:vector(packetBytes) ETV
attr interpolationmode none
attr source rxPkFromHL
attr title "packet bytes from higher layer, vector(packetBytes)"
vector 321 small_network_ofnc_flowmod.switch2.eth[0].mac rxPkFromHL:vector(packetBytes) ETV
attr interpolationmode none
attr source rxPkFromHL
attr title "packet bytes from higher layer, vector(packetBytes)"
vector 322 small_network_ofnc_flowmod.switch1.eth[0].mac txPk:vector(packetBytes) ETV
attr interpolationmode none
attr source txPk
attr title "packets transmitted, vector(packetBytes)"
vector 323 small_network_ofnc_flowmod.switch2.eth[0].mac txPk:vector(packetBytes) ETV
attr interpolationmode none
attr source txPk
attr title "packets transmitted, vector(packetBytes)"
vector 324 small_network_ofnc_flowmod.ethswitch.eth[1].mac rxPkOk:vector(packetBytes) ETV
attr interpolationmode none
attr source rxPkOk
attr title "packets received OK, vector(packetBytes)"
vector 325 small_network_ofnc_flowmod.ethswitch.eth[1].mac passedUpPk:vector(packetBytes) ETV
attr interpolationmode none
attr source packetSentToUpper
attr title "packets passed to higher layer, vector(packetBytes)"
vector 326 small_network_ofnc_flowmod.ethswitch.eth[2].mac rxPkOk:vector(packetBytes) ETV
attr interpolationmode none
attr source rxPkOk
attr title "packets received OK, vector(packetBytes)"
vector 327 small_network_ofnc_flowmod.ethswitch.eth[2].mac passedUpPk:vector(packetBytes) ETV
attr interpolationmode none
attr source packetSentToUpper
attr title "packets passed to higher layer, vector(packetBytes)"
vector 328 small_network_ofnc_flowmod.ethswitch.eth[0].mac rxPkFromHL:vector(packetBytes) ETV
attr interpolationmode none
attr source rxPkFromHL
attr title "packet bytes from higher layer, vector(packetBytes)"
vector 329 small_network_ofnc_flowmod.ethswitch.eth[2].mac rxPkFromHL:vector(packetBytes) ETV
attr interpolationmode none
attr source rxPkFromHL
attr title "packet bytes from higher layer, vector(packetBytes)"
vector 330 small_network_ofnc_flowmod.ethswitch.eth[1].mac rxPkFromHL:vector(packetBytes) ETV
attr interpolationmode none
attr source rxPkFromHL
attr title "packet bytes from higher layer, vector(packetBytes)"
vector 331 small_network_ofnc_flowmod.ethswitch.eth[0].mac txPk:vector(packetBytes) ETV
attr interpolationmode none
attr source txPk
attr title "packets transmitted, vector(packetBytes)"
vector 332 small_network_ofnc_flowmod.controller.eth[0].mac rxPkOk:vector(packetBytes) ETV
attr interpolationmode none
attr source rxPkOk
attr title "packets received OK, vector(packetBytes)"
vector 333 small_network_ofnc_flowmod.controller.eth[0].mac passedUpPk:vector(packetBytes) ETV
attr interpolationmode none
attr source packetSentToUpper
attr title "packets passed to higher layer, vector(packetBytes)"
vector 334 small_network_ofnc_flowmod.controller.eth[0].encap decapPk:vector(packetBytes) ETV
attr interpolationmode none
attr source decapPk
attr title "packets decapsulated, vector(packetBytes)"
vector 335 small_network_ofnc_flowmod.controller.networkLayer.arp sentReply:vector ETV
attr title "ARP replies sent, vector"
vector 336 small_network_ofnc_flowmod.controller.eth[0].encap encapPk:vector(packetBytes) ETV
attr interpolationmode none
attr source encapPk
attr title "packets encapsulated, vector(packetBytes)"
vector 337 small_network_ofnc_flowmod.controller.eth[0].mac rxPkFromHL:vector(packetBytes) ETV
attr interpolationmode none
attr source rxPkFromHL
attr title "packet bytes from higher layer, vector(packetBytes)"
vector 338 small_network_ofnc_flowmod.ethswitch.eth[1].mac txPk:vector(packetBytes) ETV
attr interpolationmode none
attr source txPk
attr title "packets transmitted, vector(packetBytes)"
vector 339 small_network_ofnc_flowmod.ethswitch.eth[2].mac txPk:vector(packetBytes) ETV
attr interpolationmode none
attr source txPk
attr title "packets transmitted, vector(packetBytes)"
vector 340 small_network_ofnc_flowmod.switch1.eth[0].mac rxPkOk:vector(packetBytes) ETV
attr interpolationmode none
attr source rxPkOk
attr title "packets received OK, vector(packetBytes)"
vector 341 small_network_ofnc_flowmod.switch1.eth[0].mac passedUpPk:vector(packetBytes) ETV
attr interpolationmode none
attr source packetSentToUpper
attr title "packets passed to higher layer, vector(packetBytes)"
vector 342 small_network_ofnc_flowmod.switch2.eth[0].mac rxPkOk:vector(packetBytes) ETV
attr interpolationmode none
attr source rxPkOk
attr title "packets received OK, vector(packetBytes)"
vector 343 small_network_ofnc_flowmod.switch2.eth[0].mac passedUpPk:vector(packetBytes) ETV
attr interpolationmode none
attr source packetSentToUpper
attr title "packets passed to higher layer, vector(packetBytes)"
vector 344 small_network_ofnc_flowmod.switch1.eth[0].inControl rxLatency:vector ETV
attr interpolationmode none
attr source messageAge(rxPk)
attr title "End-to-end latency (received), vector"
attr unit s
vector 345 small_network_ofnc_flowmod.switch1.eth[0].inControl bandwidthFloating:floatingIntervalSumVector(packetBytes) ETV
vector 346 small_network_ofnc_flowmod.switch2.eth[0].inControl rxLatency:vector ETV
attr interpolationmode none
attr source messageAge(rxPk)
attr title "End-to-end latency (received), vector"
attr unit s
vector 347 small_network_ofnc_flowmod.switch2.eth[0].inControl bandwidthFloating:floatingIntervalSumVector(packetBytes) ETV
vector 348 small_network_ofnc_flowmod.switch1.eth[0].encap decapPk:vector(packetBytes) ETV
attr interpolationmode none
attr source decapPk
attr title "packets decapsulated, vector(packetBytes)"
vector 349 small_network_ofnc_flowmod.switch2.eth[0].encap decapPk:vector(packetBytes) ETV
attr interpolationmode none
attr source decapPk
attr title "packets decapsulated, vector(packetBytes)"
vector 350 small_network_ofnc_flowmod.controller.eth[0].mac txPk:vector(packetBytes) ETV
attr interpolationmode none
attr source txPk
attr title "packets transmitted, vector(packetBytes)"
vector 351 small_network_ofnc_flowmod.ethswitch.eth[0].mac rxPkOk:vector(packetBytes) ETV
attr interpolationmode none
attr source rxPkOk
attr title "packets received OK, vector(packetBytes)"
vector 352 small_network_ofnc_flowmod.ethswitch.eth[0].mac passedUpPk:vector(packetBytes) ETV
attr interpolationmode none
attr source packetSentToUpper
attr title "packets passed to higher layer, vector(packetBytes)"
vector 353 small_network_ofnc_flowmod.controller.tcp "rcvd seq" ETV
vector 354 small_network_ofnc_flowmod.controller.tcp "rcvd ack" ETV
vector 355 small_network_ofnc_flowmod.controller.tcp "advertised window" ETV
vector 356 small_network_ofnc_flowmod.controller.tcp "send window" ETV
vector 357 small_network_ofnc_flowmod.controller.tcp tcpRcvQueueBytes ETV
vector 358 small_network_ofnc_flowmod.controller.tcp "receive window" ETV
vector 359 small_network_ofnc_flowmod.controller.tcp "sent ack" ETV
vector 360 small_network_ofnc_flowmod.controller.tcp "rcvd seq" ETV
vector 361 small_network_ofnc_flowmod.controller.tcp "rcvd ack" ETV
vector 362 small_network_ofnc_flowmod.controller.tcp "advertised window" ETV
vector 363 small_network_ofnc_flowmod.controller.tcp "send window" ETV
vector 364 small_network_ofnc_flowmod.controller.tcp tcpRcvQueueBytes ETV
vector 365 small_network_ofnc_flowmod.controller.tcp "receive window" ETV
vector 366 small_network_ofnc_flowmod.controller.tcp "sent ack" ETV
vector 367 small_network_ofnc_flowmod.switch1.tcp "rcvd seq" ETV
vector 368 small_network_ofnc_flowmod.switch1.tcp "rcvd ack" ETV
vector 369 small_network_ofnc_flowmod.switch1.tcp "send window" ETV
vector 370 small_network_ofnc_flowmod.switch1.tcp "sent seq" ETV
vector 371 small_network_ofnc_flowmod.switch1.tcp "unacked bytes" ETV
vector 372 small_network_ofnc_flowmod.switch2.tcp "rcvd seq" ETV
vector 373 small_network_ofnc_flowmod.switch2.tcp "rcvd ack" ETV
vector 374 small_network_ofnc_flowmod.switch2.tcp "send window" ETV
vector 375 small_network_ofnc_flowmod.switch2.tcp "sent seq" ETV
vector 376 small_network_ofnc_flowmod.switch2.tcp "unacked bytes" ETV
vector 377 small_network_ofnc_flowmod.controller.tcp "unacked bytes" ETV
vector 378 small_network_ofnc_flowmod.controller.tcp cwnd ETV
vector 379 small_network_ofnc_flowmod.controller.tcp "rcvd dupAcks" ETV
vector 380 small_network_ofnc_flowmod.controller.OF_Controller queueSize:vector ETV
attr interpolationmode none
attr title "QueueSize, vector"
vector 381 small_network_ofnc_flowmod.controller.OF_Controller waitingTime:vector ETV
attr interpolationmode none
attr title "WaitingTime, vector"
vector 382 small_network_ofnc_flowmod.controller.tcp "unacked bytes" ETV
vector 383 small_network_ofnc_flowmod.controller.tcp cwnd ETV
vector 384 small_network_ofnc_flowmod.controller.tcp "rcvd dupAcks" ETV
vector 385 small_network_ofnc_flowmod.controller.tcp "sent seq" ETV
vector 386 small_network_ofnc_flowmod.switch1.tcp "measured RTT" ETV
vector 387 small_network_ofnc_flowmod.switch1.tcp "smoothed RTT" ETV
vector 388 small_network_ofnc_flowmod.switch1.tcp RTTVAR ETV
vector 389 small_network_ofnc_flowmod.switch1.tcp RTO ETV
vector 390 small_network_ofnc_flowmod.switch1.tcp cwnd ETV
vector 391 small_network_ofnc_flowmod.switch1.tcp "rcvd dupAcks" ETV
vector 392 small_network_ofnc_flowmod.switch2.tcp "measured RTT" ETV
vector 393 small_network_ofnc_flowmod.switch2.tcp "smoothed RTT" ETV
vector 394 small_network_ofnc_flowmod.switch2.tcp RTTVAR ETV
vector 395 small_network_ofnc_flowmod.switch2.tcp RTO ETV
vector 396 small_network_ofnc_flowmod.switch2.tcp cwnd ETV
vector 397 small_network_ofnc_flowmod.switch2.tcp "rcvd dupAcks" ETV
vector 398 small_network_ofnc_flowmod.controller.tcp "sent seq" ETV
vector 399 small_network_ofnc_flowmod.controller.tcp "measured RTT" ETV
vector 400 small_network_ofnc_flowmod.controller.tcp "smoothed RTT" ETV
vector 401 small_network_ofnc_flowmod.controller.tcp RTTVAR ETV
vector 402 small_network_ofnc_flowmod.controller.tcp RTO ETV
vector 403 small_network_ofnc_flowmod.controller.tcp "measured RTT" ETV
vector 404 small_network_ofnc_flowmod.controller.tcp "smoothed RTT" ETV
vector 405 small_network_ofnc_flowmod.controller.tcp RTTVAR ETV
vector 406 small_network_ofnc_flowmod.controller.tcp RTO ETV
vector 407 small_network_ofnc_flowmod.switch1.switchAgent queueSize:vector ETV
attr interpolationmode none
attr title "QueueSize, vector"
vector 408 small_network_ofnc_flowmod.switch1.switchAgent bufferSize:vector ETV
attr interpolationmode none
attr title "BufferSize, vector"
vector 409 small_network_ofnc_flowmod.switch2.switchAgent queueSize:vector ETV
attr interpolationmode none
attr title "QueueSize, vector"
vector 410 small_network_ofnc_flowmod.switch2.switchAgent bufferSize:vector ETV
attr interpolationmode none
attr title "BufferSize, vector"
vector 411 small_network_ofnc_flowmod.switch1.switchAgent waitingTime:vector ETV
attr interpolationmode none
attr title "WaitingTime, vector"
vector 412 small_network_ofnc_flowmod.switch2.switchAgent waitingTime:vector ETV
attr interpolationmode none
attr title "WaitingTime, vector"
vector 413 small_network_ofnc_flowmod.switch2.etherMAC[0].shaper.transmissionGate[7] state:vector ETV
attr "" ""
attr interpolationmode sample-hold
attr source NF_QBV_STATE_CHANGED
attr title "State, vector"
vector 414 small_network_ofnc_flowmod.switch2.etherMAC[1].shaper.transmissionGate[7] state:vector ETV
attr "" ""
attr interpolationmode sample-hold
attr source NF_QBV_STATE_CHANGED
attr title "State, vector"
vector 415 small_network_ofnc_flowmod.switch2.etherMAC[2].shaper.transmissionGate[7] state:vector ETV
attr "" ""
attr interpolationmode sample-hold
attr source NF_QBV_STATE_CHANGED
attr title "State, vector"
vector 416 small_network_ofnc_flowmod.switch1.etherMAC[0].shaper.transmissionGate[6] state:vector ETV
attr "" ""
attr interpolationmode sample-hold
attr source NF_QBV_STATE_CHANGED
attr title "State, vector"
vector 417 small_network_ofnc_flowmod.switch1.etherMAC[0].shaper.transmissionGate[5] state:vector ETV
attr "" ""
attr interpolationmode sample-hold
attr source NF_QBV_STATE_CHANGED
attr title "State, vector"
vector 418 small_network_ofnc_flowmod.switch1.etherMAC[0].shaper.transmissionGate[4] state:vector ETV
attr "" ""
attr interpolationmode sample-hold
attr source NF_QBV_STATE_CHANGED
attr title "State, vector"
vector 419 small_network_ofnc_flowmod.switch1.etherMAC[0].shaper.transmissionGate[3] state:vector ETV
attr "" ""
attr interpolationmode sample-hold
attr source NF_QBV_STATE_CHANGED
attr title "State, vector"
vector 420 small_network_ofnc_flowmod.switch1.etherMAC[0].shaper.transmissionGate[2] state:vector ETV
attr "" ""
attr interpolationmode sample-hold
attr source NF_QBV_STATE_CHANGED
attr title "State, vector"
vector 421 small_network_ofnc_flowmod.switch1.etherMAC[0].shaper.transmissionGate[1] state:vector ETV
attr "" ""
attr interpolationmode sample-hold
attr source NF_QBV_STATE_CHANGED
attr title "State, vector"
vector 422 small_network_ofnc_flowmod.switch1.etherMAC[0].shaper.transmissionGate[0] state:vector ETV
attr "" ""
attr interpolationmode sample-hold
attr source NF_QBV_STATE_CHANGED
attr title "State, vector"
vector 423 small_network_ofnc_flowmod.switch1.etherMAC[1].shaper.transmissionGate[6] state:vector ETV
attr "" ""
attr interpolationmode sample-hold
attr source NF_QBV_STATE_CHANGED
attr title "State, vector"
vector 424 small_network_ofnc_flowmod.switch1.etherMAC[1].shaper.transmissionGate[5] state:vector ETV
attr "" ""
attr interpolationmode sample-hold
attr source NF_QBV_STATE_CHANGED
attr title "State, vector"
vector 425 small_network_ofnc_flowmod.switch1.etherMAC[1].shaper.transmissionGate[4] state:vector ETV
attr "" ""
attr interpolationmode sample-hold
attr source NF_QBV_STATE_CHANGED
attr title "State, vector"
vector 426 small_network_ofnc_flowmod.switch1.etherMAC[1].shaper.transmissionGate[3] state:vector ETV
attr "" ""
attr interpolationmode sample-hold
attr source NF_QBV_STATE_CHANGED
attr title "State, vector"
vector 427 small_network_ofnc_flowmod.switch1.etherMAC[1].shaper.transmissionGate[2] state:vector ETV
attr "" ""
attr interpolationmode sample-hold
attr source NF_QBV_STATE_CHANGED
attr title "State, vector"
vector 428 small_network_ofnc_flowmod.switch1.etherMAC[1].shaper.transmissionGate[1] state:vector ETV
attr "" ""
attr interpolationmode sample-hold
attr source NF_QBV_STATE_CHANGED
attr title "State, vector"
vector 429 small_network_ofnc_flowmod.switch1.etherMAC[1].shaper.transmissionGate[0] state:vector ETV
attr "" ""
attr interpolationmode sample-hold
attr source NF_QBV_STATE_CHANGED
attr title "State, vector"
vector 430 small_network_ofnc_flowmod.node1.phy[0].mac rxPkFromHL:vector(packetBytes) ETV
attr interpolationmode none
attr source rxPkFromHL
attr title "packet bytes from higher layer, vector(packetBytes)"
vector 431 small_network_ofnc_flowmod.node1.phy[0].mac txPk:vector(packetBytes) ETV
attr interpolationmode none
attr source txPk
attr title "packets transmitted, vector(packetBytes)"
vector 432 small_network_ofnc_flowmod.switch1.etherMAC[1].mac rxPkOk:vector(packetBytes) ETV
attr interpolationmode none
attr source rxPkOk
attr title "packets received OK, vector(packetBytes)"
vector 433 small_network_ofnc_flowmod.switch1.etherMAC[1].mac passedUpPk:vector(packetBytes) ETV
attr interpolationmode none
attr source packetSentToUpper
attr title "packets passed to higher layer, vector(packetBytes)"
vector 434 small_network_ofnc_flowmod.switch1.etherMAC[1].inControl rxLatency:vector ETV
attr interpolationmode none
attr source messageAge(rxPk)
attr title "End-to-end latency (received), vector"
attr unit s
vector 435 small_network_ofnc_flowmod.switch1.etherMAC[1].inControl bandwidthFloating:floatingIntervalSumVector(packetBytes) ETV
vector 436 small_network_ofnc_flowmod.switch1.etherMAC[0].shaper.queue[0] rxBytes:vector(packetBytes) ETV
attr interpolationmode none
attr source rxPk
attr title "Received Bytes, vector(packetBytes)"
attr unit B
vector 437 small_network_ofnc_flowmod.switch1.etherMAC[0].shaper.queue[0] rxLatency:vector ETV
attr interpolationmode none
attr source messageAge(rxPk)
attr title "End-to-end latency (received), vector"
attr unit s
vector 438 small_network_ofnc_flowmod.switch1.etherMAC[0].shaper.queue[0] length:vector ETV
attr interpolationmode sample-hold
attr source length
attr title "Queue Length, vector"
attr unit packets
vector 439 small_network_ofnc_flowmod.switch1.etherMAC[0].shaper.queue[0] size:vector ETV
attr interpolationmode sample-hold
attr source size
attr title "Queue Size, vector"
attr unit B
vector 440 small_network_ofnc_flowmod.switch1.etherMAC[0].shaper.queue[0] state:vector ETV
attr "" ""
attr interpolationmode sample-hold
attr source NF_QBV_STATE_CHANGED
attr title "State, vector"
vector 441 small_network_ofnc_flowmod.switch1.etherMAC[0].mac rxPkFromHL:vector(packetBytes) ETV
attr interpolationmode none
attr source rxPkFromHL
attr title "packet bytes from higher layer, vector(packetBytes)"
vector 442 small_network_ofnc_flowmod.node2.scheduler.period[0] newCycle:vector ETV
attr interpolationmode none
attr title "Start of cycle, vector"
vector 443 small_network_ofnc_flowmod.node2.scheduler.oscillator currentDrift:vector ETV
attr title "Current drift, vector"
attr unit s
vector 444 small_network_ofnc_flowmod.node2.scheduler.timer clockCorrection:vector ETV
attr title "Clock correction, vector"
attr unit tick
vector 445 small_network_ofnc_flowmod.node3.scheduler.period[0] newCycle:vector ETV
attr interpolationmode none
attr title "Start of cycle, vector"
vector 446 small_network_ofnc_flowmod.node3.scheduler.oscillator currentDrift:vector ETV
attr title "Current drift, vector"
attr unit s
vector 447 small_network_ofnc_flowmod.node3.scheduler.timer clockCorrection:vector ETV
attr title "Clock correction, vector"
attr unit tick
vector 448 small_network_ofnc_flowmod.node1.scheduler.period[0] newCycle:vector ETV
attr interpolationmode none
attr title "Start of cycle, vector"
vector 449 small_network_ofnc_flowmod.node1.scheduler.oscillator currentDrift:vector ETV
attr title "Current drift, vector"
attr unit s
vector 450 small_network_ofnc_flowmod.node1.scheduler.timer clockCorrection:vector ETV
attr title "Clock correction, vector"
attr unit tick
vector 451 small_network_ofnc_flowmod.switch1.scheduler.period[0] newCycle:vector ETV
attr interpolationmode none
attr title "Start of cycle, vector"
vector 452 small_network_ofnc_flowmod.switch1.scheduler.oscillator currentDrift:vector ETV
attr title "Current drift, vector"
attr unit s
[...]
572	27812959 124486 362418 678102 1.273775914816 2.389276078985 4464 0 1 2232 2232
573	27937445 131182 362418 678102 1.273775914816 2.389276078985 4464 0 1522 3397104 5170392288
574	28068627 62243 362418 678101 1.273775914816 2.389276078985 2232 1 1 2232 2232
575	28130870 68939 362324 678007 1.273401764816 2.38890195336 2232 1522 1522 3397104 5170392288
576	28199809 91006 362324 678007 1.273401764816 2.38890195336 2232 0.000401635353 0.000402239808 0.89710922426 0.00036057574880593
577	28290815 124486 362324 678008 1.273401764816 2.38890195336 4464 0 1 2232 2232
578	28415301 131182 362324 678008 1.273401764816 2.38890195336 4464 0 1522 3397104 5170392288
579	28546483 62243 362324 678007 1.273401764816 2.38890195336 2232 1 1 2232 2232
580	28608726 68939 362366 678049 1.273524214816 2.38902440336 2232 1522 1522 3397104 5170392288
581	28677665 151239 362366 678049 1.273524214816 2.38902440336 4463 3042478 3045522 13585402440 4.1354062857111e+16
582	28828904 91006 362366 678049 1.273524214816 2.38902440336 2232 0.000524085353 0.000524689808 1.17041762426 0.0006137444114072
583	28919910 91006 362366 678049 1.273524214816 2.38902440336 2232 0.000524085353 0.000524689808 1.17041762426 0.0006137444114072
588	29010916 6885 362946 677102 1.275524792874 2.385551055307 223 1518 1518 338514 513864252
589	29017801 9087 362946 677102 1.275524792874 2.385551055307 223 0.000524695362 0.000551554023 0.119592121203 6.4173653138249e-05
590	29026888 12432 362946 677103 1.275524792874 2.385551055307 446 0 1 223 223
591	29039320 13101 362946 677103 1.275524792874 2.385551055307 446 0 1518 338514 513864252
592	29052421 6216 362946 677102 1.275524792874 2.385551055307 223 1 1 223 223
593	29058637 6885 362975 677105 1.27554987275 2.385551055307 223 1518 1518 338514 513864252
594	29065522 6885 362984 677114 1.27567195275 2.385673135307 223 1518 1518 338514 513864252
595	29072407 6885 362985 677115 1.27567200275 2.385673185307 223 1518 1518 338514 513864252
596	29079292 6885 362985 677115 1.27567200275 2.385673185307 223 1518 1518 338514 513864252
597	29086177 9087 362987 677117 1.27567200275 2.385673185307 223 0.000671898415 0.000673684023 0.15001272993 0.00010091407595887
598	29095264 14694 362987 677117 1.270672418953 2.385673185307 447 302082 305118 135701610 41197218336252
599	29109958 18 567923 567923 2 2 1 1522 1522 1522 2316484
600	29109976 18 567923 567923 2 2 1 1518 1518 1518 2304324
601	29109994 21 567923 567923 2 2 1 3044722 3044722 3044722 9270332057284
602	29110015 18 567926 567926 2 2 1 1518 1518 1518 2304324
603	29110033 18 567926 567926 2 2 1 1518 1518 1518 2304324
604	29110051 20 567926 567926 2 2 1 303600 303600 303600 92172960000
605	29110071 18 567933 567933 2 2 1 1522 1522 1522 2316484
606	29110089 18 567933 567933 2 2 1 1522 1522 1522 2316484
607	29110107 21 567933 567933 2 2 1 3044000 3044000 3044000 9265936000000
608	29110128 18 567960 567960 2 2 1 1522 1522 1522 2316484
609	29110146 18 567960 567960 2 2 1 1522 1522 1522 2316484
610	29110164 21 567960 567960 2 2 1 3044000 3044000 3044000 9265936000000
611	29110185 18 567962 567962 2 2 1 1522 1522 1522 2316484
612	29110203 18 567962 567962 2 2 1 1522 1522 1522 2316484
613	29110221 21 567962 567962 2 2 1 3044000 3044000 3044000 9265936000000
614	29110242 18 567994 567994 2 2 1 1522 1522 1522 2316484
615	29110260 18 567994 567994 2 2 1 1518 1518 1518 2304324
616	29110278 21 567994 567994 2 2 1 3347600 3347600 3347600 11206425760000
617	29110299 18 568024 568024 2 2 1 1522 1522 1522 2316484
618	29110317 18 568024 568024 2 2 1 1522 1522 1522 2316484
619	29110335 21 568024 568024 2 2 1 3044000 3044000 3044000 9265936000000
620	29110356 18 568057 568057 2 2 1 1522 1522 1522 2316484
621	29110374 18 568057 568057 2 2 1 1518 1518 1518 2304324
622	29110392 21 568057 568057 2 2 1 3347600 3347600 3347600 11206425760000
623	29110413 18 568070 568070 2 2 1 1522 1522 1522 2316484
624	29110431 18 568070 568070 2 2 1 1522 1522 1522 2316484
625	29110449 21 568070 568070 2 2 1 3044000 3044000 3044000 9265936000000
626	29110470 18 568001 568001 2 2 1 1518 1518 1518 2304324
627	29110488 18 568001 568001 2 2 1 1518 1518 1518 2304324
628	29110506 20 568001 568001 2 2 1 303600 303600 303600 92172960000
629	29110526 18 568121 568121 2 2 1 1518 1518 1518 2304324
630	29110544 18 568121 568121 2 2 1 1518 1518 1518 2304324
631	29110562 20 568121 568121 2 2 1 303600 303600 303600 92172960000
632	29110582 18 568162 568162 2 2 1 1518 1518 1518 2304324
633	29110600 18 568162 568162 2 2 1 1518 1518 1518 2304324
634	29110618 20 568162 568162 2 2 1 303600 303600 303600 92172960000
5	29110638 40292 678242 778155 2.389398478985 2.742775875573 1556 0 1 778 778
9	29150930 36663 678148 778199 2.38902435336 2.742901825573 1416 0 1 708 708
10	29187593 3822 678520 777570 2.385673135307 2.740551231253 142 0 1 71 71
11	29191415 41337 678222 778135 2.389272528985 2.742649925573 1556 0 1 778 778
38	29232752 2124 678442 777492 2.390425835231 2.740425601253 71 1518 1518 107778 163607004
39	29234876 4529 678442 777492 2.390399355971 2.740425601253 142 302082 305118 43100574 13082271819804
40	29239405 2828 678442 777492 2.390425835231 2.740425601253 71 0.000399127208 0.000425987184 0.029222498177 1.203975296583e-05
59	29242233 21134 678241 778154 2.389775838985 2.742775875573 707 1522 1522 1076054 1637754188
60	29263367 46463 678241 778154 2.389775838985 2.742775875573 1413 3042478 3045522 4301130906 1.3092519025482e+16
61	29309830 28128 678241 778154 2.389775838985 2.742775875573 707 0.000275682261 0.000276299505 0.195131467417 5.3856154386527e-05
155	29337958 21872 678147 778198 2.389402028985 2.742901825573 708 1522 1522 1077576 1640070672
156	29359830 47978 678147 778198 2.388902136586 2.742901825573 1416 3042478 3045522 4310261384 1.3120307569863e+16
157	29407808 28876 678147 778198 2.389402028985 2.742901825573 708 0.000401632261 0.000402249505 0.284580146402 0.00011438682390115
158	29436684 2195 678519 777569 2.390551465231 2.740551231253 71 1518 1518 107778 163607004
159	29438879 4673 678519 777569 2.390549833399 2.740551231253 142 302082 305118 43112718 13089645656604
160	29443552 2899 678519 777569 2.390551465231 2.740551231253 71 0.000549784689 0.000551617184 0.039093123819 2.1524993333706e-05
182	29446451 1833 678396 777446 2.390300205231 2.740299971253 71 1518 1518 107778 163607004
183	29448284 3876 678396 777446 2.39 2.740299971253 142 302082 305118 43140042 13106236789404
184	29452160 2046 678396 777446 2.390300205231 2.740299971253 71 0 0.000300357184 0.009901157042 2.9706951014607e-06
203	29454206 21841 678221 778134 2.389649888985 2.742649925573 707 1522 1522 1076054 1637754188
204	29476047 47876 678221 778134 2.389649888985 2.742649925573 1413 3042478 3045522 4301130906 1.3092519025482e+16
205	29523923 28835 678221 778134 2.389649888985 2.742649925573 707 0.000149732261 0.000150349505 0.106084817417 1.5917963311685e-05
254	29552758 1522 678309 777352 2.39 2.74 71 1500 1500 106500 159750000
255	29554280 1593 678309 777352 2.39 2.74 71 0.005 0.005 0.355 0.001775
256	29555873 39428 678228 778166 2.389749964102 2.742874986553 1414 0 1 707 707
257	29595301 39428 678229 778167 2.389749964102 2.742874986553 1414 0 1 707 707
258	29634729 39444 678191 778142 2.389549979791 2.742750039363 1414 0 1 707 707
259	29674173 39444 678191 778142 2.389549979791 2.742750039363 1414 0 1 707 707
260	29713617 39444 678191 778142 2.389549979791 2.742750039363 1414 0 1 707 707
261	29753061 39444 678191 778142 2.389549979791 2.742750039363 1414 0 1 707 707
262	29792505 39444 678191 778142 2.389549979791 2.742750039363 1414 0 1 707 707
263	29831949 39444 678191 778142 2.389549979791 2.742750039363 1414 0 1 707 707
264	29871393 39444 678191 778142 2.389549979791 2.742750039363 1414 0 1 707 707
265	29910837 39444 678192 778143 2.389549979791 2.742750039363 1414 0 1 707 707
266	29950281 39444 678192 778143 2.389549979791 2.742750039363 1414 0 1 707 707
267	29989725 39444 678192 778143 2.389549979791 2.742750039363 1414 0 1 707 707
268	30029169 39444 678192 778143 2.389549979791 2.742750039363 1414 0 1 707 707
269	30068613 39444 678192 778143 2.389549979791 2.742750039363 1414 0 1 707 707
270	30108057 39444 678192 778143 2.389549979791 2.742750039363 1414 0 1 707 707
271	30147501 39444 678192 778143 2.389549979791 2.742750039363 1414 0 1 707 707
272	30186945 39444 678193 778144 2.389549979791 2.742750039363 1414 0 1 707 707
273	30226389 39444 678193 778144 2.389549979791 2.742750039363 1414 0 1 707 707
274	30265833 39444 678193 778144 2.389549979791 2.742750039363 1414 0 1 707 707
275	30305277 39444 678193 778144 2.389549979791 2.742750039363 1414 0 1 707 707
276	30344721 39444 678193 778144 2.389549979791 2.742750039363 1414 0 1 707 707
277	30384165 39444 678193 778144 2.389549979791 2.742750039363 1414 0 1 707 707
278	30423609 39444 678193 778144 2.389549979791 2.742750039363 1414 0 1 707 707
279	30463053 39447 678219 778157 2.389649888985 2.742799946198 1414 0 1 707 707
280	30502500 39482 678174 778218 2.389500128985 2.742999973698 1415 0 1 707 707
281	30541982 39482 678174 778218 2.389500128985 2.742999973698 1415 0 1 707 707
282	30581464 39482 678174 778218 2.389500128985 2.742999973698 1415 0 1 707 707
283	30620946 39482 678174 778218 2.389500128985 2.742999973698 1415 0 1 707 707
284	30660428 39482 678174 778218 2.389500128985 2.742999973698 1415 0 1 707 707
285	30699910 39482 678174 778218 2.389500128985 2.742999973698 1415 0 1 707 707
286	30739392 39482 678174 778218 2.389500128985 2.742999973698 1415 0 1 707 707
287	30778874 17412 678161 778220 2.3895 2.743 779 1518 1522 1185354 1803677676
288	30796286 15075 678161 778220 2.3895 2.743 779 0 0 0 0
289	30811361 30150 678161 778220 2.3895 2.743 1558 0 1 779 779
290	30841511 32487 678161 778220 2.3895 2.743 1558 0 1522 1185354 1803677676
291	30873998 17412 678161 778220 2.3895 2.743 779 1518 1522 1185354 1803677676
292	30891410 15075 678161 778220 2.3895 2.743 779 0 0 0 0
303	30906485 1522 678314 777357 2.39 2.74 71 1518 1518 107778 163607004
304	30908007 1309 678314 777357 2.39 2.74 71 0 0 0 0
305	30909316 2929 678314 777439 2.39 2.740299971253 142 0 1 71 71
306	30912245 3142 678314 777439 2.39 2.740299971253 142 0 1518 107778 163607004
307	30915387 1309 678314 777357 2.39 2.74 71 1 1 71 71
413	30916696 39449 678191 778188 2.389549979791 2.742900024363 1414 0 1 707 707
414	30956145 39449 678192 778189 2.389549979791 2.742900024363 1414 0 1 707 707
415	30995594 39449 678193 778190 2.389549979791 2.742900024363 1414 0 1 707 707
416	31035043 39453 678216 778166 2.389625011912 2.742874986553 1414 0 1 707 707
417	31074496 39453 678216 778166 2.389625011912 2.742874986553 1414 0 1 707 707
418	31113949 39453 678216 778166 2.389625011912 2.742874986553 1414 0 1 707 707
419	31153402 39453 678216 778166 2.389625011912 2.742874986553 1414 0 1 707 707
420	31192855 39453 678216 778166 2.389625011912 2.742874986553 1414 0 1 707 707
421	31232308 39453 678216 778166 2.389625011912 2.742874986553 1414 0 1 707 707
422	31271761 39453 678216 778166 2.389625011912 2.742874986553 1414 0 1 707 707
423	31311214 39453 678217 778167 2.389625011912 2.742874986553 1414 0 1 707 707
424	31350667 39453 678217 778167 2.389625011912 2.742874986553 1414 0 1 707 707
425	31390120 39453 678217 778167 2.389625011912 2.742874986553 1414 0 1 707 707
426	31429573 39453 678217 778167 2.389625011912 2.742874986553 1414 0 1 707 707
427	31469026 39453 678217 778167 2.389625011912 2.742874986553 1414 0 1 707 707
428	31508479 39453 678217 778167 2.389625011912 2.742874986553 1414 0 1 707 707
429	31547932 39453 678217 778167 2.389625011912 2.742874986553 1414 0 1 707 707
430	31587385 23674 678222 778135 2.389649888985 2.742649925573 778 1518 1522 1183832 1801361192
431	31611059 23887 678232 778145 2.389772288985 2.742772325573 778 1518 1522 1183832 1801361192
432	31634946 23887 678233 778146 2.389772338985 2.742772375573 778 1518 1522 1183832 1801361192
433	31658833 23887 678233 778146 2.389772338985 2.742772375573 778 1518 1522 1183832 1801361192
434	31682720 31436 678235 778148 2.389772338985 2.742772375573 778 0.00012213 0.000422487184 0.211229354459 5.8947063905048e-05
435	31714156 52361 678235 778148 2.389772338985 2.742772375573 1555 3344560 3350640 5205481460 1.7425749381489e+16
436	31766517 2046 678440 777490 2.390425835231 2.740425601253 71 1518 1518 107778 163607004
437	31768563 2601 678440 777490 2.390425835231 2.740425601253 71 0.00012563 0.000425987184 0.018820887042 6.5790454997337e-06
438	31771164 3815 678440 777491 2.390425835231 2.740425601253 142 0 1 71 71
439	31774979 4028 678440 777491 2.390425835231 2.740425601253 142 0 1518 107778 163607004
440	31779007 1833 678440 777490 2.390425835231 2.740425601253 71 1 1 71 71
441	31780840 24036 678242 778155 2.389775838985 2.742775875573 778 1518 1522 1183832 1801361192
442	31804876 19730 678167 778211 2.389500092613 2.742999937241 708 1 1 708 708
443	31824606 23084 678168 778212 2.389500092613 2.742999937241 708 -1.6e-11 1.6e-11 1.504e-09 5.4594e-20
444	31847690 20019 678169 778213 2.389500092613 2.742999937241 708 -7 6 116 4712
445	31867709 19736 678150 778201 2.389499866558 2.742999933265 708 1 1 708 708
446	31887445 23306 678151 778202 2.389499866558 2.742999933265 708 -1.6e-11 1.6e-11 -1.67e-10 5.9293e-20
447	31910751 20032 678152 778203 2.389499866558 2.742999933265 708 -7 7 -15 4935
448	31930783 19755 678171 778215 2.389500128985 2.742999973698 708 1 1 708 708
449	31950538 23474 678172 778216 2.389500128985 2.742999973698 708 -1.6e-11 1.6e-11 2.048e-09 8.3126e-20
450	31974012 20033 678173 778217 2.389500128985 2.742999973698 708 -7 7 162 5314
451	31994045 19729 678176 778205 2.389500219712 2.742999935619 708 1 1 708 708
452	32013774 23193 678177 778206 2.389500219712 2.742999935619 708 -1.6e-11 1.6e-11 -2.31e-10 5.6017e-20
453	32036967 20045 678178 778207 2.389500219712 2.742999935619 708 -8 7 -12 5014
454	32057012 19727 678154 778063 2.389499907929 2.742499904379 707 1 1 707 707
455	32076739 23467 678155 778064 2.389499907929 2.742499904379 707 -1.6e-11 1.6e-11 -1.787e-09 6.3907e-20
456	32100206 20052 678156 778065 2.389499907929 2.742499904379 707 -6 7 -141 5199
457	32120258 24036 678269 778182 2.389898238985 2.742898275573 778 1518 1522 1183832 1801361192
458	32144294 24036 678270 778183 2.389898288985 2.742898325573 778 1518 1522 1183832 1801361192
459	32168330 24036 678270 778183 2.389898288985 2.742898325573 778 1518 1522 1183832 1801361192
460	32192366 31734 678272 778185 2.389898288985 2.742898325573 778 0.000398132261 0.000548117184 0.319597345594 0.00013248126821489
461	32224100 52689 678272 778185 2.389898288985 2.742898325573 1555 3346078 3349122 5205466280 1.7425647582417e+16
467	32276789 21872 678148 778199 2.389402028985 2.742901825573 708 1522 1522 1077576 1640070672
468	32298661 21841 678181 778094 2.389524428985 2.742524152448 707 1522 1522 1076054 1637754188
469	32320502 21841 678182 778095 2.389524478985 2.742524202448 707 1522 1522 1076054 1637754188
470	32342343 21841 678182 778095 2.389524478985 2.742524202448 707 1522 1522 1076054 1637754188
471	32364184 28835 678184 778097 2.389524478985 2.742524202448 707 0.000524082261 0.000524699505 0.370750470829 0.00019442139064855
472	32393019 47910 678184 778097 2.389024586586 2.742524202448 1414 3042478 3045522 4304171862 1.310176642961e+16
473	32440929 21841 678186 778099 2.389524478985 2.742524202448 707 1522 1522 1076054 1637754188
474	32462770 28835 678186 778099 2.389524478985 2.742524202448 707 0.000524082261 0.000524699505 0.370750470829 0.00019442139064855
475	32491605 39440 678186 778099 2.389524478985 2.742524202448 1414 0 1 707 707
476	32531045 41561 678186 778099 2.389524478985 2.742524202448 1414 0 1522 1076054 1637754188
477	32572606 21841 678186 778099 2.389524478985 2.742524202448 707 1522 1522 1076054 1637754188
478	32594447 28835 678186 778099 2.389524478985 2.742524202448 707 0.000524082261 0.000524699505 0.370750470829 0.00019442139064855
479	32623282 21841 678187 778100 2.389524478985 2.742524202448 707 1522 1522 1076054 1637754188
480	32645123 47910 678187 778100 2.389024586586 2.742524202448 1414 3042478 3045522 4304171862 1.310176642961e+16
481	32693033 28835 678187 778100 2.389524478985 2.742524202448 707 0.000524082261 0.000524699505 0.370750470829 0.00019442139064855
482	32721868 28835 678187 778100 2.389524478985 2.742524202448 707 0.000524082261 0.000524699505 0.370750470829 0.00019442139064855
483	32750703 21841 678188 778101 2.389524478985 2.742524202448 707 1522 1522 1076054 1637754188
484	32772544 47910 678188 778101 2.389024586586 2.742524202448 1414 3042478 3045522 4304171862 1.310176642961e+16
485	32820454 28835 678188 778101 2.389524478985 2.742524202448 707 0.000524082261 0.000524699505 0.370750470829 0.00019442139064855
486	32849289 28835 678188 778101 2.389524478985 2.742524202448 707 0.000524082261 0.000524699505 0.370750470829 0.00019442139064855
562	32878124 15890 678160 778219 2.3895 2.743 708 1500 1500 1062000 1593000000
563	32894014 15890 678160 778219 2.3895 2.743 708 1522 1522 1077576 1640070672
564	32909904 36028 678160 778219 2.389 2.743 1416 3044000 3045522 4311381576 1.3127127298759e+16
565	32945932 15868 678164 778078 2.3895 2.7425 707 1522 1522 1076054 1637754188
566	32961800 13747 678164 778078 2.3895 2.7425 707 0 0 0 0
567	32975547 33467 678164 778133 2.3895 2.742649925573 1414 0 1 707 707
568	33009014 35588 678164 778133 2.3895 2.742649925573 1414 0 1522 1076054 1637754188
569	33044602 13747 678164 778078 2.3895 2.7425 707 1 1 707 707
570	33058349 21841 678239 778152 2.389775838985 2.742775875573 707 1522 1522 1076054 1637754188
571	33080190 28835 678239 778152 2.389775838985 2.742775875573 707 0.000275682261 0.000276299505 0.195131467417 5.3856154386527e-05
572	33109025 39440 678239 778153 2.389775838985 2.742775875573 1414 0 1 707 707
573	33148465 41561 678239 778153 2.389775838985 2.742775875573 1414 0 1522 1076054 1637754188
574	33190026 19720 678239 778152 2.389775838985 2.742775875573 707 1 1 707 707
575	33209746 21872 678145 778196 2.389402028985 2.742901825573 708 1522 1522 1077576 1640070672
576	33231618 28876 678145 778196 2.389402028985 2.742901825573 708 0.000401632261 0.000402249505 0.284580146402 0.00011438682390115
577	33260494 39496 678145 778197 2.389402028985 2.742901825573 1416 0 1 708 708
578	33299990 41620 678145 778197 2.389402028985 2.742901825573 1416 0 1522 1077576 1640070672
579	33341610 19748 678145 778196 2.389402028985 2.742901825573 708 1 1 708 708
580	33361358 21841 678187 778100 2.389524478985 2.742524202448 707 1522 1522 1076054 1637754188
581	33383199 47910 678187 778100 2.389024586586 2.742524202448 1414 3042478 3045522 4304171862 1.310176642961e+16
582	33431109 28835 678187 778100 2.389524478985 2.742524202448 707 0.000524082261 0.000524699505 0.370750470829 0.00019442139064855
583	33459944 28835 678187 778100 2.389524478985 2.742524202448 707 0.000524082261 0.000524699505 0.370750470829 0.00019442139064855
588	33488779 2195 678517 777567 2.390551465231 2.740551231253 71 1518 1518 107778 163607004
589	33490974 2899 678517 777567 2.390551465231 2.740551231253 71 0.000524757208 0.000551617184 0.038142228177 2.0502783537683e-05
590	33493873 3964 678517 777568 2.390551465231 2.740551231253 142 0 1 71 71
591	33497837 4177 678517 777568 2.390551465231 2.740551231253 142 0 1518 107778 163607004
592	33502014 1982 678517 777567 2.390551465231 2.740551231253 71 1 1 71 71
593	33503996 2195 678520 777570 2.390551465231 2.740551231253 71 1518 1518 107778 163607004
594	33506191 2195 678529 777579 2.390673545231 2.740673311253 71 1518 1518 107778 163607004
595	33508386 2195 678530 777580 2.390673595231 2.740673361253 71 1518 1518 107778 163607004
596	33510581 2195 678530 777580 2.390673595231 2.740673361253 71 1518 1518 107778 163607004
597	33512776 2899 678532 777582 2.390673595231 2.740673361253 71 0.000671914689 0.000673747184 0.047764353819 3.2132897077635e-05
598	33515675 4673 678532 777582 2.390671963399 2.740673361253 142 302082 305118 43112718 13089645656604

